glide-dockSARS_13a_7.72uM
                    3D
 Structure written by MMmdl.
 64 67  0  0  1  0            999 V2000
    2.6070  -19.7540  106.5910 C   0  0  0  0  0  0
    2.7090  -20.6260  107.6780 C   0  0  0  0  0  0
    2.0760  -21.8630  107.6300 C   0  0  0  0  0  0
    1.3460  -22.2380  106.5010 C   0  0  0  0  0  0
    1.2410  -21.3550  105.4150 C   0  0  0  0  0  0
    1.8610  -20.1100  105.4640 C   0  0  0  0  0  0
    3.2270  -18.4890  106.6530 N   0  0  0  0  0  0
    4.5390  -18.4140  106.2780 C   0  0  0  0  0  0
    2.5520  -17.3570  107.3910 C   0  0  2  0  0  0
    0.8050  -23.5350  106.4990 N   0  0  0  0  0  0
    5.2020  -17.4040  106.4990 O   0  0  0  0  0  0
    5.2420  -19.6080  105.5720 C   0  0  0  0  0  0
    6.5320  -19.2560  104.9830 N   0  0  0  0  0  0
    7.6890  -19.6520  105.5550 N   0  0  0  0  0  0
    8.7330  -19.0370  104.8970 N   0  0  0  0  0  0
    8.1910  -18.2590  103.9180 C   0  0  0  0  0  0
    6.7850  -18.4160  103.9120 C   0  0  0  0  0  0
    8.7980  -17.3850  103.0100 C   0  0  0  0  0  0
    7.9840  -16.7150  102.0960 C   0  0  0  0  0  0
    6.6010  -16.9040  102.0840 C   0  0  0  0  0  0
    5.9640  -17.7530  102.9930 C   0  0  0  0  0  0
    1.1550  -17.6660  107.8280 C   0  0  0  0  0  0
    2.5800  -15.8880  106.8440 C   0  0  0  0  0  0
    2.0640  -15.0010  107.5280 O   0  0  0  0  0  0
    3.1630  -15.6430  105.6540 N   0  0  0  0  0  0
    3.3460  -14.3480  104.9820 C   0  0  0  0  0  0
    4.1780  -13.3660  105.8450 C   0  0  0  0  0  0
    4.1330  -14.6170  103.6820 C   0  0  0  0  0  0
    1.9860  -13.7140  104.6110 C   0  0  0  0  0  0
    0.8610  -18.0460  109.1300 C   0  0  0  0  0  0
   -0.7980  -18.4710  109.3220 S   0  0  0  0  0  0
   -1.1220  -18.0960  107.6650 C   0  0  0  0  0  0
    0.0220  -17.6890  106.9960 C   0  0  0  0  0  0
   -0.2620  -23.9840  105.8080 C   0  0  0  0  0  0
   -1.0110  -23.2790  105.1300 O   0  0  0  0  0  0
   -0.5420  -25.4760  105.9100 C   0  0  0  0  0  0
    3.2740  -20.3490  108.5560 H   0  0  0  0  0  0
    2.1640  -22.5260  108.4780 H   0  0  0  0  0  0
    0.7020  -21.6280  104.5210 H   0  0  0  0  0  0
    1.7740  -19.4340  104.6250 H   0  0  0  0  0  0
    3.1560  -17.2750  108.2980 H   0  0  0  0  0  0
    1.2530  -24.1890  107.1260 H   0  0  0  0  0  0
    5.3940  -20.4110  106.2940 H   0  0  0  0  0  0
    4.6190  -20.0010  104.7680 H   0  0  0  0  0  0
    9.8630  -17.2230  103.0280 H   0  0  0  0  0  0
    8.4290  -16.0280  101.3920 H   0  0  0  0  0  0
    6.0060  -16.3580  101.3670 H   0  0  0  0  0  0
    4.8890  -17.8720  102.9900 H   0  0  0  0  0  0
    3.6090  -16.4250  105.1990 H   0  0  0  0  0  0
    4.3530  -12.4260  105.3210 H   0  0  0  0  0  0
    5.1550  -13.7820  106.0950 H   0  0  0  0  0  0
    3.6830  -13.1190  106.7840 H   0  0  0  0  0  0
    4.2960  -13.7000  103.1130 H   0  0  0  0  0  0
    3.6090  -15.3150  103.0260 H   0  0  0  0  0  0
    5.1170  -15.0390  103.8940 H   0  0  0  0  0  0
    2.1200  -12.7870  104.0520 H   0  0  0  0  0  0
    1.3940  -13.4700  105.4940 H   0  0  0  0  0  0
    1.3880  -14.3860  103.9930 H   0  0  0  0  0  0
    1.5390  -18.1220  109.9660 H   0  0  0  0  0  0
   -2.1190  -18.2080  107.2670 H   0  0  0  0  0  0
    0.0440  -17.4330  105.9470 H   0  0  0  0  0  0
   -0.2970  -25.8660  106.8990 H   0  0  0  0  0  0
    0.0450  -26.0190  105.1670 H   0  0  0  0  0  0
   -1.5980  -25.6700  105.7110 H   0  0  0  0  0  0
  1  2  1  0  0  0
  1  6  2  0  0  0
  1  7  1  0  0  0
  2  3  2  0  0  0
  2 37  1  0  0  0
  3  4  1  0  0  0
  3 38  1  0  0  0
  4  5  2  0  0  0
  4 10  1  0  0  0
  5  6  1  0  0  0
  5 39  1  0  0  0
  6 40  1  0  0  0
  7  8  1  0  0  0
  7  9  1  0  0  0
  8 11  2  0  0  0
  8 12  1  0  0  0
  9 22  1  0  0  0
  9 23  1  0  0  0
  9 41  1  0  0  0
 10 34  1  0  0  0
 10 42  1  0  0  0
 12 13  1  0  0  0
 12 43  1  0  0  0
 12 44  1  0  0  0
 13 14  1  0  0  0
 13 17  1  0  0  0
 14 15  2  0  0  0
 15 16  1  0  0  0
 16 17  2  0  0  0
 16 18  1  0  0  0
 17 21  1  0  0  0
 18 19  2  0  0  0
 18 45  1  0  0  0
 19 20  1  0  0  0
 19 46  1  0  0  0
 20 21  2  0  0  0
 20 47  1  0  0  0
 21 48  1  0  0  0
 22 30  2  0  0  0
 22 33  1  0  0  0
 23 24  2  0  0  0
 23 25  1  0  0  0
 25 26  1  0  0  0
 25 49  1  0  0  0
 26 27  1  0  0  0
 26 28  1  0  0  0
 26 29  1  0  0  0
 27 50  1  0  0  0
 27 51  1  0  0  0
 27 52  1  0  0  0
 28 53  1  0  0  0
 28 54  1  0  0  0
 28 55  1  0  0  0
 29 56  1  0  0  0
 29 57  1  0  0  0
 29 58  1  0  0  0
 30 31  1  0  0  0
 30 59  1  0  0  0
 31 32  1  0  0  0
 32 33  2  0  0  0
 32 60  1  0  0  0
 33 61  1  0  0  0
 34 35  2  0  0  0
 34 36  1  0  0  0
 36 62  1  0  0  0
 36 63  1  0  0  0
 36 64  1  0  0  0
M  END
> <s_m_entry_id>
1

> <s_m_entry_name>
13_serie.1

> <s_pdb_PDB_format_version>
3.0

> <s_m_Source_Path>
/home/carles/Downloads/complexes

> <s_m_Source_File>
13_serie.sdf

> <i_m_Source_File_Index>
1

> <chiral flag>
0

> <version>
1

> <s_m_subgroup_title>
13_serie

> <s_m_subgroupid>
13_serie

> <b_m_subgroup_collapsed>
0

$$$$
glide-dockSARS_13b_25.3uM
                    3D
 Structure written by MMmdl.
 65 68  0  0  1  0            999 V2000
    2.5840  -19.9380  106.4520 C   0  0  0  0  0  0
    2.1350  -20.5360  105.2700 C   0  0  0  0  0  0
    1.6310  -21.8340  105.2980 C   0  0  0  0  0  0
    1.5770  -22.5310  106.5080 C   0  0  0  0  0  0
    2.0030  -21.9240  107.6860 C   0  0  0  0  0  0
    2.5190  -20.6330  107.6610 C   0  0  0  0  0  0
    3.1250  -18.6360  106.4300 N   0  0  0  0  0  0
    4.4790  -18.4870  106.2940 C   0  0  0  0  0  0
    2.2960  -17.4320  106.7640 C   0  0  2  0  0  0
    1.1460  -23.8560  106.5940 N   0  0  0  0  0  0
    5.0390  -17.4040  106.5000 O   0  0  0  0  0  0
    5.3700  -19.6740  105.8280 C   0  0  0  0  0  0
    6.5910  -19.2380  105.1470 N   0  0  0  0  0  0
    7.8090  -19.5030  105.6630 N   0  0  0  0  0  0
    8.7570  -18.8540  104.8990 N   0  0  0  0  0  0
    8.0920  -18.1810  103.9160 C   0  0  0  0  0  0
    6.7100  -18.4600  104.0060 C   0  0  0  0  0  0
    8.5620  -17.3070  102.9300 C   0  0  0  0  0  0
    7.6450  -16.7740  102.0250 C   0  0  0  0  0  0
    6.2910  -17.0950  102.1020 C   0  0  0  0  0  0
    5.7850  -17.9380  103.0940 C   0  0  0  0  0  0
    2.2100  -17.1720  108.2410 C   0  0  0  0  0  0
    0.8930  -17.2900  106.1040 C   0  0  0  0  0  0
    0.4970  -18.1040  105.2740 O   0  0  0  0  0  0
    0.1840  -16.1990  106.4620 N   0  0  0  0  0  0
   -1.1580  -15.7970  106.0280 C   0  0  0  0  0  0
   -2.2150  -16.8210  106.5000 C   0  0  0  0  0  0
   -1.4510  -14.4320  106.6830 C   0  0  0  0  0  0
   -1.2380  -15.6190  104.4910 C   0  0  0  0  0  0
    1.4310  -17.8880  109.1500 C   0  0  0  0  0  0
    1.6030  -17.3120  110.7730 S   0  0  0  0  0  0
    2.7040  -16.0850  110.2370 C   0  0  0  0  0  0
    2.9290  -16.1480  108.8710 C   0  0  0  0  0  0
    0.0780  -24.6260  105.4280 S   0  0  0  0  0  0
   -0.2290  -26.2700  106.2610 C   0  0  0  0  0  0
    0.8570  -24.8330  104.2050 O   0  0  0  0  0  0
   -1.1610  -23.8430  105.4050 O   0  0  0  0  0  0
    2.1810  -20.0030  104.3320 H   0  0  0  0  0  0
    1.3060  -22.2920  104.3780 H   0  0  0  0  0  0
    1.9710  -22.4640  108.6210 H   0  0  0  0  0  0
    2.8800  -20.1860  108.5760 H   0  0  0  0  0  0
    2.8050  -16.5830  106.3040 H   0  0  0  0  0  0
    1.3750  -24.3740  107.4320 H   0  0  0  0  0  0
    5.6350  -20.2850  106.6940 H   0  0  0  0  0  0
    4.8380  -20.3130  105.1240 H   0  0  0  0  0  0
    9.6020  -17.0370  102.8930 H   0  0  0  0  0  0
    7.9840  -16.0920  101.2590 H   0  0  0  0  0  0
    5.6100  -16.6580  101.3870 H   0  0  0  0  0  0
    4.7300  -18.1490  103.1610 H   0  0  0  0  0  0
    0.6110  -15.5890  107.1410 H   0  0  0  0  0  0
   -3.2280  -16.4880  106.2740 H   0  0  0  0  0  0
   -2.1550  -16.9940  107.5750 H   0  0  0  0  0  0
   -2.0790  -17.7870  106.0150 H   0  0  0  0  0  0
   -2.4560  -14.0820  106.4470 H   0  0  0  0  0  0
   -0.7560  -13.6650  106.3380 H   0  0  0  0  0  0
   -1.3630  -14.4720  107.7680 H   0  0  0  0  0  0
   -2.2090  -15.2280  104.1830 H   0  0  0  0  0  0
   -1.0940  -16.5600  103.9590 H   0  0  0  0  0  0
   -0.4760  -14.9260  104.1300 H   0  0  0  0  0  0
    0.7740  -18.7190  108.9420 H   0  0  0  0  0  0
    3.1480  -15.4060  110.9500 H   0  0  0  0  0  0
    3.6020  -15.4820  108.3480 H   0  0  0  0  0  0
   -0.7980  -26.0910  107.1710 H   0  0  0  0  0  0
    0.7260  -26.7350  106.4980 H   0  0  0  0  0  0
   -0.7980  -26.8950  105.5840 H   0  0  0  0  0  0
  1  2  1  0  0  0
  1  6  2  0  0  0
  1  7  1  0  0  0
  2  3  2  0  0  0
  2 38  1  0  0  0
  3  4  1  0  0  0
  3 39  1  0  0  0
  4  5  2  0  0  0
  4 10  1  0  0  0
  5  6  1  0  0  0
  5 40  1  0  0  0
  6 41  1  0  0  0
  7  8  1  0  0  0
  7  9  1  0  0  0
  8 11  2  0  0  0
  8 12  1  0  0  0
  9 22  1  0  0  0
  9 23  1  0  0  0
  9 42  1  0  0  0
 10 34  1  0  0  0
 10 43  1  0  0  0
 12 13  1  0  0  0
 12 44  1  0  0  0
 12 45  1  0  0  0
 13 14  1  0  0  0
 13 17  1  0  0  0
 14 15  2  0  0  0
 15 16  1  0  0  0
 16 17  2  0  0  0
 16 18  1  0  0  0
 17 21  1  0  0  0
 18 19  2  0  0  0
 18 46  1  0  0  0
 19 20  1  0  0  0
 19 47  1  0  0  0
 20 21  2  0  0  0
 20 48  1  0  0  0
 21 49  1  0  0  0
 22 30  2  0  0  0
 22 33  1  0  0  0
 23 24  2  0  0  0
 23 25  1  0  0  0
 25 26  1  0  0  0
 25 50  1  0  0  0
 26 27  1  0  0  0
 26 28  1  0  0  0
 26 29  1  0  0  0
 27 51  1  0  0  0
 27 52  1  0  0  0
 27 53  1  0  0  0
 28 54  1  0  0  0
 28 55  1  0  0  0
 28 56  1  0  0  0
 29 57  1  0  0  0
 29 58  1  0  0  0
 29 59  1  0  0  0
 30 31  1  0  0  0
 30 60  1  0  0  0
 31 32  1  0  0  0
 32 33  2  0  0  0
 32 61  1  0  0  0
 33 62  1  0  0  0
 34 35  1  0  0  0
 34 36  2  0  0  0
 34 37  2  0  0  0
 35 63  1  0  0  0
 35 64  1  0  0  0
 35 65  1  0  0  0
M  END
> <s_m_entry_id>
2

> <s_m_entry_name>
13_serie.2

> <s_pdb_PDB_format_version>
3.0

> <s_m_Source_Path>
/home/carles/Downloads/complexes

> <s_m_Source_File>
13_serie.sdf

> <i_m_Source_File_Index>
2

> <chiral flag>
0

> <version>
1

> <s_m_subgroup_title>
13_serie

> <s_m_subgroupid>
13_serie

> <b_m_subgroup_collapsed>
0

$$$$
glide-dockSARS_13c_6.9uM
                    3D
 Structure written by MMmdl.
 67 70  0  0  1  0            999 V2000
    2.8100  -20.1540  106.0890 C   0  0  0  0  0  0
    2.6420  -20.5690  104.7640 C   0  0  0  0  0  0
    2.1620  -21.8420  104.4950 C   0  0  0  0  0  0
    1.8050  -22.6830  105.5490 C   0  0  0  0  0  0
    2.0060  -22.2790  106.8770 C   0  0  0  0  0  0
    2.5180  -21.0140  107.1470 C   0  0  0  0  0  0
    3.2200  -18.8340  106.3420 N   0  0  0  0  0  0
    4.5580  -18.5450  106.2960 C   0  0  0  0  0  0
    2.2480  -17.7450  106.7070 C   0  0  2  0  0  0
    1.2190  -23.9020  105.1980 N   0  0  0  0  0  0
    4.9860  -17.4080  106.5160 O   0  0  0  0  0  0
    5.6020  -19.6390  105.9410 C   0  0  0  0  0  0
    6.7590  -19.1190  105.2160 N   0  0  0  0  0  0
    8.0020  -19.2720  105.7080 N   0  0  0  0  0  0
    8.8890  -18.6150  104.8860 N   0  0  0  0  0  0
    8.1650  -18.0730  103.8670 C   0  0  0  0  0  0
    6.8010  -18.4170  104.0200 C   0  0  0  0  0  0
    8.5720  -17.2720  102.7970 C   0  0  0  0  0  0
    7.6020  -16.8620  101.8800 C   0  0  0  0  0  0
    6.2660  -17.2400  102.0220 C   0  0  0  0  0  0
    5.8280  -18.0230  103.0920 C   0  0  0  0  0  0
    2.1910  -17.4800  108.1820 C   0  0  0  0  0  0
    0.7720  -17.7700  106.2000 C   0  0  0  0  0  0
    0.1420  -16.7090  106.1830 O   0  0  0  0  0  0
    0.2290  -18.9540  105.8610 N   0  0  0  0  0  0
   -1.1690  -19.2740  105.5610 C   0  0  0  0  0  0
   -2.0750  -18.9560  106.7750 C   0  0  0  0  0  0
   -1.6740  -18.5230  104.3080 C   0  0  0  0  0  0
   -1.2270  -20.7880  105.2770 C   0  0  0  0  0  0
    1.5300  -18.2760  109.1230 C   0  0  0  0  0  0
    1.6030  -17.6220  110.7260 S   0  0  0  0  0  0
    2.5660  -16.2990  110.1470 C   0  0  0  0  0  0
    2.8040  -16.3700  108.7810 C   0  0  0  0  0  0
    0.1890  -24.5000  105.8270 C   0  0  0  0  0  0
   -0.2970  -24.1230  106.8900 O   0  0  0  0  0  0
   -0.4420  -25.6840  105.0990 C   0  0  0  0  0  0
   -1.1170  -25.2670  103.7750 C   0  0  0  0  0  0
    2.8690  -19.9010  103.9440 H   0  0  0  0  0  0
    2.0250  -22.1490  103.4700 H   0  0  0  0  0  0
    1.7560  -22.9320  107.7010 H   0  0  0  0  0  0
    2.6620  -20.7020  108.1720 H   0  0  0  0  0  0
    2.6260  -16.8460  106.2140 H   0  0  0  0  0  0
    1.4620  -24.2600  104.2860 H   0  0  0  0  0  0
    5.2000  -20.4310  105.3130 H   0  0  0  0  0  0
    5.9340  -20.1080  106.8730 H   0  0  0  0  0  0
    9.6010  -16.9680  102.6950 H   0  0  0  0  0  0
    7.8880  -16.2330  101.0490 H   0  0  0  0  0  0
    5.5450  -16.8970  101.2920 H   0  0  0  0  0  0
    4.7870  -18.2830  103.2050 H   0  0  0  0  0  0
    0.8460  -19.7550  105.8920 H   0  0  0  0  0  0
   -3.0970  -19.2960  106.6140 H   0  0  0  0  0  0
   -2.1230  -17.8840  106.9780 H   0  0  0  0  0  0
   -1.7020  -19.4360  107.6800 H   0  0  0  0  0  0
   -2.6920  -18.8140  104.0570 H   0  0  0  0  0  0
   -1.0490  -18.7290  103.4400 H   0  0  0  0  0  0
   -1.6760  -17.4430  104.4540 H   0  0  0  0  0  0
   -2.2520  -21.1360  105.1350 H   0  0  0  0  0  0
   -0.7970  -21.3650  106.0970 H   0  0  0  0  0  0
   -0.6590  -21.0510  104.3830 H   0  0  0  0  0  0
    0.9710  -19.1840  108.9420 H   0  0  0  0  0  0
    2.9250  -15.5490  110.8350 H   0  0  0  0  0  0
    3.3910  -15.6440  108.2330 H   0  0  0  0  0  0
    0.3070  -26.4630  104.9470 H   0  0  0  0  0  0
   -1.1980  -26.1120  105.7540 H   0  0  0  0  0  0
   -1.7140  -26.0800  103.3730 H   0  0  0  0  0  0
   -0.3820  -25.0200  103.0070 H   0  0  0  0  0  0
   -1.7900  -24.4200  103.9040 H   0  0  0  0  0  0
  1  2  1  0  0  0
  1  6  2  0  0  0
  1  7  1  0  0  0
  2  3  2  0  0  0
  2 38  1  0  0  0
  3  4  1  0  0  0
  3 39  1  0  0  0
  4  5  2  0  0  0
  4 10  1  0  0  0
  5  6  1  0  0  0
  5 40  1  0  0  0
  6 41  1  0  0  0
  7  8  1  0  0  0
  7  9  1  0  0  0
  8 11  2  0  0  0
  8 12  1  0  0  0
  9 22  1  0  0  0
  9 23  1  0  0  0
  9 42  1  0  0  0
 10 34  1  0  0  0
 10 43  1  0  0  0
 12 13  1  0  0  0
 12 44  1  0  0  0
 12 45  1  0  0  0
 13 14  1  0  0  0
 13 17  1  0  0  0
 14 15  2  0  0  0
 15 16  1  0  0  0
 16 17  2  0  0  0
 16 18  1  0  0  0
 17 21  1  0  0  0
 18 19  2  0  0  0
 18 46  1  0  0  0
 19 20  1  0  0  0
 19 47  1  0  0  0
 20 21  2  0  0  0
 20 48  1  0  0  0
 21 49  1  0  0  0
 22 30  2  0  0  0
 22 33  1  0  0  0
 23 24  2  0  0  0
 23 25  1  0  0  0
 25 26  1  0  0  0
 25 50  1  0  0  0
 26 27  1  0  0  0
 26 28  1  0  0  0
 26 29  1  0  0  0
 27 51  1  0  0  0
 27 52  1  0  0  0
 27 53  1  0  0  0
 28 54  1  0  0  0
 28 55  1  0  0  0
 28 56  1  0  0  0
 29 57  1  0  0  0
 29 58  1  0  0  0
 29 59  1  0  0  0
 30 31  1  0  0  0
 30 60  1  0  0  0
 31 32  1  0  0  0
 32 33  2  0  0  0
 32 61  1  0  0  0
 33 62  1  0  0  0
 34 35  2  0  0  0
 34 36  1  0  0  0
 36 37  1  0  0  0
 36 63  1  0  0  0
 36 64  1  0  0  0
 37 65  1  0  0  0
 37 66  1  0  0  0
 37 67  1  0  0  0
M  END
> <s_m_entry_id>
3

> <s_m_entry_name>
13_serie.3

> <s_pdb_PDB_format_version>
3.0

> <s_m_Source_Path>
/home/carles/Downloads/complexes

> <s_m_Source_File>
13_serie.sdf

> <i_m_Source_File_Index>
3

> <chiral flag>
0

> <version>
1

> <s_m_subgroup_title>
13_serie

> <s_m_subgroupid>
13_serie

> <b_m_subgroup_collapsed>
0

$$$$
glide-dockSARS_13d_4.1uM
                    3D
 Structure written by MMmdl.
 70 73  0  0  1  0            999 V2000
    2.5470  -20.1460  105.3130 C   0  0  0  0  0  0
    2.2450  -21.3250  106.0010 C   0  0  0  0  0  0
    1.8300  -22.4490  105.2930 C   0  0  0  0  0  0
    1.7200  -22.4070  103.9000 C   0  0  0  0  0  0
    1.9930  -21.2090  103.2210 C   0  0  0  0  0  0
    2.4040  -20.0820  103.9250 C   0  0  0  0  0  0
    3.0030  -19.0140  106.0190 N   0  0  0  0  0  0
    4.3550  -18.8740  106.2240 C   0  0  0  0  0  0
    2.0280  -18.0430  106.6320 C   0  0  2  0  0  0
    1.2960  -23.5900  103.2630 N   0  0  0  0  0  0
    4.8180  -17.9500  106.8960 O   0  0  0  0  0  0
    5.3720  -19.8810  105.6240 C   0  0  0  0  0  0
    6.5730  -19.2510  105.0780 N   0  0  0  0  0  0
    7.7640  -19.3800  105.6980 N   0  0  0  0  0  0
    8.7100  -18.6820  104.9810 N   0  0  0  0  0  0
    8.0770  -18.1100  103.9190 C   0  0  0  0  0  0
    6.7100  -18.4790  103.9350 C   0  0  0  0  0  0
    8.5660  -17.2720  102.9100 C   0  0  0  0  0  0
    7.6730  -16.8390  101.9290 C   0  0  0  0  0  0
    6.3360  -17.2380  101.9400 C   0  0  0  0  0  0
    5.8170  -18.0620  102.9420 C   0  0  0  0  0  0
    0.5680  -18.3950  106.5400 C   0  0  0  0  0  0
    2.1400  -16.5260  106.2710 C   0  0  0  0  0  0
    1.4420  -15.7230  106.8950 O   0  0  0  0  0  0
    2.9810  -16.1590  105.2830 N   0  0  0  0  0  0
    3.1880  -14.8120  104.7380 C   0  0  0  0  0  0
    3.5950  -13.8010  105.8390 C   0  0  0  0  0  0
    4.3300  -14.9000  103.7070 C   0  0  0  0  0  0
    1.9140  -14.3140  104.0170 C   0  0  0  0  0  0
   -0.1670  -18.5370  105.3610 C   0  0  0  0  0  0
   -1.8440  -18.8660  105.6450 S   0  0  0  0  0  0
   -1.5780  -18.7710  107.3540 C   0  0  0  0  0  0
   -0.2450  -18.5510  107.6730 C   0  0  0  0  0  0
    1.4250  -23.9450  101.9650 C   0  0  0  0  0  0
    2.0020  -23.2710  101.1080 O   0  0  0  0  0  0
    0.7740  -25.2880  101.5660 C   0  0  0  0  0  0
   -0.7110  -25.0840  101.2040 C   0  0  0  0  0  0
    1.5250  -25.9870  100.4080 C   0  0  0  0  0  0
    2.3430  -21.3730  107.0750 H   0  0  0  0  0  0
    1.6070  -23.3570  105.8380 H   0  0  0  0  0  0
    1.8860  -21.1230  102.1500 H   0  0  0  0  0  0
    2.6190  -19.1690  103.3910 H   0  0  0  0  0  0
    2.2960  -18.0660  107.6910 H   0  0  0  0  0  0
    0.8810  -24.2770  103.8730 H   0  0  0  0  0  0
    5.6530  -20.5670  106.4250 H   0  0  0  0  0  0
    4.9690  -20.5020  104.8230 H   0  0  0  0  0  0
    9.6010  -16.9580  102.8990 H   0  0  0  0  0  0
    8.0260  -16.1850  101.1410 H   0  0  0  0  0  0
    5.6790  -16.8870  101.1570 H   0  0  0  0  0  0
    4.7770  -18.3500  102.9480 H   0  0  0  0  0  0
    3.5420  -16.8830  104.8640 H   0  0  0  0  0  0
    3.9290  -12.8530  105.4190 H   0  0  0  0  0  0
    4.4020  -14.1870  106.4600 H   0  0  0  0  0  0
    2.7690  -13.5700  106.5110 H   0  0  0  0  0  0
    4.5730  -13.9210  103.2880 H   0  0  0  0  0  0
    4.0640  -15.5500  102.8730 H   0  0  0  0  0  0
    5.2470  -15.2940  104.1500 H   0  0  0  0  0  0
    2.0680  -13.3320  103.5660 H   0  0  0  0  0  0
    1.0720  -14.2250  104.7020 H   0  0  0  0  0  0
    1.6170  -14.9990  103.2210 H   0  0  0  0  0  0
    0.1930  -18.4470  104.3490 H   0  0  0  0  0  0
   -2.4100  -18.8720  108.0340 H   0  0  0  0  0  0
    0.1200  -18.4590  108.6860 H   0  0  0  0  0  0
    0.8100  -25.9580  102.4280 H   0  0  0  0  0  0
   -1.2700  -24.6420  102.0300 H   0  0  0  0  0  0
   -1.1880  -26.0340  100.9610 H   0  0  0  0  0  0
   -0.8310  -24.4250  100.3420 H   0  0  0  0  0  0
    2.5500  -26.2360  100.6880 H   0  0  0  0  0  0
    1.5760  -25.3550   99.5180 H   0  0  0  0  0  0
    1.0290  -26.9070  100.1110 H   0  0  0  0  0  0
  1  2  1  0  0  0
  1  6  2  0  0  0
  1  7  1  0  0  0
  2  3  2  0  0  0
  2 39  1  0  0  0
  3  4  1  0  0  0
  3 40  1  0  0  0
  4  5  2  0  0  0
  4 10  1  0  0  0
  5  6  1  0  0  0
  5 41  1  0  0  0
  6 42  1  0  0  0
  7  8  1  0  0  0
  7  9  1  0  0  0
  8 11  2  0  0  0
  8 12  1  0  0  0
  9 22  1  0  0  0
  9 23  1  0  0  0
  9 43  1  0  0  0
 10 34  1  0  0  0
 10 44  1  0  0  0
 12 13  1  0  0  0
 12 45  1  0  0  0
 12 46  1  0  0  0
 13 14  1  0  0  0
 13 17  1  0  0  0
 14 15  2  0  0  0
 15 16  1  0  0  0
 16 17  2  0  0  0
 16 18  1  0  0  0
 17 21  1  0  0  0
 18 19  2  0  0  0
 18 47  1  0  0  0
 19 20  1  0  0  0
 19 48  1  0  0  0
 20 21  2  0  0  0
 20 49  1  0  0  0
 21 50  1  0  0  0
 22 30  2  0  0  0
 22 33  1  0  0  0
 23 24  2  0  0  0
 23 25  1  0  0  0
 25 26  1  0  0  0
 25 51  1  0  0  0
 26 27  1  0  0  0
 26 28  1  0  0  0
 26 29  1  0  0  0
 27 52  1  0  0  0
 27 53  1  0  0  0
 27 54  1  0  0  0
 28 55  1  0  0  0
 28 56  1  0  0  0
 28 57  1  0  0  0
 29 58  1  0  0  0
 29 59  1  0  0  0
 29 60  1  0  0  0
 30 31  1  0  0  0
 30 61  1  0  0  0
 31 32  1  0  0  0
 32 33  2  0  0  0
 32 62  1  0  0  0
 33 63  1  0  0  0
 34 35  2  0  0  0
 34 36  1  0  0  0
 36 37  1  0  0  0
 36 38  1  0  0  0
 36 64  1  0  0  0
 37 65  1  0  0  0
 37 66  1  0  0  0
 37 67  1  0  0  0
 38 68  1  0  0  0
 38 69  1  0  0  0
 38 70  1  0  0  0
M  END
> <s_m_entry_id>
4

> <s_m_entry_name>
13_serie.4

> <s_pdb_PDB_format_version>
3.0

> <s_m_Source_Path>
/home/carles/Downloads/complexes

> <s_m_Source_File>
13_serie.sdf

> <i_m_Source_File_Index>
4

> <chiral flag>
0

> <version>
1

> <s_m_subgroup_title>
13_serie

> <s_m_subgroupid>
13_serie

> <b_m_subgroup_collapsed>
0

$$$$
glide-dockSARS_13e_22.5uM
                    3D
 Structure written by MMmdl.
 73 76  0  0  1  0            999 V2000
    2.5970  -19.6160  106.6270 C   0  0  0  0  0  0
    1.7890  -19.6580  105.4900 C   0  0  0  0  0  0
    1.0770  -20.8150  105.2030 C   0  0  0  0  0  0
    1.1550  -21.9200  106.0640 C   0  0  0  0  0  0
    1.9520  -21.8620  107.2100 C   0  0  0  0  0  0
    2.6710  -20.7060  107.4980 C   0  0  0  0  0  0
    3.3310  -18.4500  106.8950 N   0  0  0  0  0  0
    4.5800  -18.3230  106.3650 C   0  0  0  0  0  0
    2.7110  -17.2910  107.6110 C   0  0  2  0  0  0
    0.5250  -23.1440  105.7960 N   0  0  0  0  0  0
    5.2020  -17.2720  106.4980 O   0  0  0  0  0  0
    5.2560  -19.4890  105.5970 C   0  0  0  0  0  0
    6.5310  -19.1200  104.9820 N   0  0  0  0  0  0
    7.6990  -19.5480  105.5020 N   0  0  0  0  0  0
    8.7320  -18.9470  104.8140 N   0  0  0  0  0  0
    8.1710  -18.1380  103.8720 C   0  0  0  0  0  0
    6.7620  -18.2460  103.9330 C   0  0  0  0  0  0
    8.7660  -17.2720  102.9470 C   0  0  0  0  0  0
    7.9330  -16.5430  102.0970 C   0  0  0  0  0  0
    6.5460  -16.6720  102.1610 C   0  0  0  0  0  0
    5.9220  -17.5210  103.0790 C   0  0  0  0  0  0
    1.5810  -17.6880  108.5120 C   0  0  0  0  0  0
    2.3330  -16.1180  106.6560 C   0  0  0  0  0  0
    1.3240  -16.1900  105.9550 O   0  0  0  0  0  0
    3.1950  -15.0790  106.6290 N   0  0  0  0  0  0
    3.1490  -13.8880  105.7680 C   0  0  0  0  0  0
    3.2220  -14.2760  104.2710 C   0  0  0  0  0  0
    1.8800  -13.0480  106.0440 C   0  0  0  0  0  0
    4.3840  -13.0260  106.0970 C   0  0  0  0  0  0
    0.2490  -17.8970  108.1430 C   0  0  0  0  0  0
   -0.7170  -18.4720  109.4510 S   0  0  0  0  0  0
    0.6650  -18.4620  110.4980 C   0  0  0  0  0  0
    1.8040  -18.0050  109.8580 C   0  0  0  0  0  0
   -0.5660  -23.3700  105.0330 C   0  0  0  0  0  0
   -1.2670  -22.4680  104.5650 O   0  0  0  0  0  0
   -0.9080  -24.8520  104.7030 C   0  0  0  0  0  0
   -2.4380  -25.0450  104.7830 C   0  0  0  0  0  0
   -0.2450  -25.8620  105.6840 C   0  0  0  0  0  0
   -0.4580  -25.1450  103.2500 C   0  0  0  0  0  0
    1.7260  -18.8080  104.8260 H   0  0  0  0  0  0
    0.4920  -20.8420  104.2970 H   0  0  0  0  0  0
    2.0210  -22.7110  107.8760 H   0  0  0  0  0  0
    3.2890  -20.6640  108.3840 H   0  0  0  0  0  0
    3.4940  -16.8950  108.2630 H   0  0  0  0  0  0
    0.9260  -23.9500  106.2520 H   0  0  0  0  0  0
    5.4210  -20.3210  106.2830 H   0  0  0  0  0  0
    4.6050  -19.8420  104.7960 H   0  0  0  0  0  0
    9.8360  -17.1560  102.9130 H   0  0  0  0  0  0
    8.3650  -15.8550  101.3870 H   0  0  0  0  0  0
    5.9340  -16.0820  101.4930 H   0  0  0  0  0  0
    4.8450  -17.5920  103.1360 H   0  0  0  0  0  0
    4.0160  -15.1350  107.2210 H   0  0  0  0  0  0
    3.2640  -13.3920  103.6330 H   0  0  0  0  0  0
    2.3540  -14.8540  103.9540 H   0  0  0  0  0  0
    4.1090  -14.8750  104.0600 H   0  0  0  0  0  0
    1.8750  -12.1290  105.4580 H   0  0  0  0  0  0
    1.8110  -12.7670  107.0950 H   0  0  0  0  0  0
    0.9700  -13.5920  105.7950 H   0  0  0  0  0  0
    4.4100  -12.1070  105.5110 H   0  0  0  0  0  0
    5.3140  -13.5590  105.8940 H   0  0  0  0  0  0
    4.4010  -12.7380  107.1500 H   0  0  0  0  0  0
   -0.1970  -17.7670  107.1680 H   0  0  0  0  0  0
    0.5790  -18.7830  111.5240 H   0  0  0  0  0  0
    2.7700  -17.9280  110.3390 H   0  0  0  0  0  0
   -2.9770  -24.3660  104.1180 H   0  0  0  0  0  0
   -2.7980  -24.8730  105.7990 H   0  0  0  0  0  0
   -2.7320  -26.0580  104.4990 H   0  0  0  0  0  0
    0.8410  -25.8860  105.5820 H   0  0  0  0  0  0
   -0.6040  -26.8730  105.5090 H   0  0  0  0  0  0
   -0.4760  -25.6320  106.7260 H   0  0  0  0  0  0
    0.6260  -25.2370  103.1690 H   0  0  0  0  0  0
   -0.7690  -24.3650  102.5520 H   0  0  0  0  0  0
   -0.8890  -26.0720  102.8700 H   0  0  0  0  0  0
  1  2  1  0  0  0
  1  6  2  0  0  0
  1  7  1  0  0  0
  2  3  2  0  0  0
  2 40  1  0  0  0
  3  4  1  0  0  0
  3 41  1  0  0  0
  4  5  2  0  0  0
  4 10  1  0  0  0
  5  6  1  0  0  0
  5 42  1  0  0  0
  6 43  1  0  0  0
  7  8  1  0  0  0
  7  9  1  0  0  0
  8 11  2  0  0  0
  8 12  1  0  0  0
  9 22  1  0  0  0
  9 23  1  0  0  0
  9 44  1  0  0  0
 10 34  1  0  0  0
 10 45  1  0  0  0
 12 13  1  0  0  0
 12 46  1  0  0  0
 12 47  1  0  0  0
 13 14  1  0  0  0
 13 17  1  0  0  0
 14 15  2  0  0  0
 15 16  1  0  0  0
 16 17  2  0  0  0
 16 18  1  0  0  0
 17 21  1  0  0  0
 18 19  2  0  0  0
 18 48  1  0  0  0
 19 20  1  0  0  0
 19 49  1  0  0  0
 20 21  2  0  0  0
 20 50  1  0  0  0
 21 51  1  0  0  0
 22 30  2  0  0  0
 22 33  1  0  0  0
 23 24  2  0  0  0
 23 25  1  0  0  0
 25 26  1  0  0  0
 25 52  1  0  0  0
 26 27  1  0  0  0
 26 28  1  0  0  0
 26 29  1  0  0  0
 27 53  1  0  0  0
 27 54  1  0  0  0
 27 55  1  0  0  0
 28 56  1  0  0  0
 28 57  1  0  0  0
 28 58  1  0  0  0
 29 59  1  0  0  0
 29 60  1  0  0  0
 29 61  1  0  0  0
 30 31  1  0  0  0
 30 62  1  0  0  0
 31 32  1  0  0  0
 32 33  2  0  0  0
 32 63  1  0  0  0
 33 64  1  0  0  0
 34 35  2  0  0  0
 34 36  1  0  0  0
 36 37  1  0  0  0
 36 38  1  0  0  0
 36 39  1  0  0  0
 37 65  1  0  0  0
 37 66  1  0  0  0
 37 67  1  0  0  0
 38 68  1  0  0  0
 38 69  1  0  0  0
 38 70  1  0  0  0
 39 71  1  0  0  0
 39 72  1  0  0  0
 39 73  1  0  0  0
M  END
> <s_m_entry_id>
5

> <s_m_entry_name>
13_serie.5

> <s_pdb_PDB_format_version>
3.0

> <s_m_Source_Path>
/home/carles/Downloads/complexes

> <s_m_Source_File>
13_serie.sdf

> <i_m_Source_File_Index>
5

> <chiral flag>
0

> <version>
1

> <s_m_subgroup_title>
13_serie

> <s_m_subgroupid>
13_serie

> <b_m_subgroup_collapsed>
0

$$$$
glide-dockSARS_13f_9.1uM
                    3D
 Structure written by MMmdl.
 68 72  0  0  1  0            999 V2000
    2.8430  -21.0240  105.4670 C   0  0  0  0  0  0
    2.7350  -20.8490  104.0860 C   0  0  0  0  0  0
    2.3970  -21.9190  103.2700 C   0  0  0  0  0  0
    2.1870  -23.1930  103.8170 C   0  0  0  0  0  0
    2.2690  -23.3570  105.2040 C   0  0  0  0  0  0
    2.5930  -22.2800  106.0300 C   0  0  0  0  0  0
    3.1560  -19.9010  106.2720 N   0  0  0  0  0  0
    4.4470  -19.4260  106.3030 C   0  0  0  0  0  0
    2.0980  -19.1770  107.0680 C   0  0  2  0  0  0
    1.8720  -24.3350  103.0500 N   0  0  0  0  0  0
    4.7510  -18.3840  106.8940 O   0  0  0  0  0  0
    5.5980  -20.2070  105.6190 C   0  0  0  0  0  0
    6.6870  -19.3870  105.0870 N   0  0  0  0  0  0
    7.8880  -19.3660  105.6990 N   0  0  0  0  0  0
    8.7330  -18.5470  104.9830 N   0  0  0  0  0  0
    8.0260  -18.0630  103.9230 C   0  0  0  0  0  0
    6.7080  -18.5790  103.9600 C   0  0  0  0  0  0
    8.4080  -17.1810  102.9060 C   0  0  0  0  0  0
    7.4570  -16.8360  101.9450 C   0  0  0  0  0  0
    6.1630  -17.3590  101.9890 C   0  0  0  0  0  0
    5.7580  -18.2480  102.9890 C   0  0  0  0  0  0
    2.2320  -19.3570  108.5620 C   0  0  0  0  0  0
    0.5910  -19.2540  106.6270 C   0  0  0  0  0  0
   -0.3080  -19.0100  107.4390 O   0  0  0  0  0  0
    0.3270  -19.5230  105.3340 N   0  0  0  0  0  0
   -0.9640  -19.5320  104.6310 C   0  0  0  0  0  0
   -1.5360  -18.0990  104.5380 C   0  0  0  0  0  0
   -0.7010  -20.0600  103.2040 C   0  0  0  0  0  0
   -1.9950  -20.4690  105.3020 C   0  0  0  0  0  0
    1.7690  -18.4070  109.4740 C   0  0  0  0  0  0
    2.0010  -18.8760  111.1220 S   0  0  0  0  0  0
    2.7970  -20.3250  110.6100 C   0  0  0  0  0  0
    2.8350  -20.4390  109.2290 C   0  0  0  0  0  0
    1.9620  -24.5150  101.7130 C   0  0  0  0  0  0
    2.3980  -23.6760  100.9180 O   0  0  0  0  0  0
    1.5070  -25.9000  101.2130 C   0  0  0  0  0  0
    1.0370  -25.9370   99.7680 C   0  0  0  0  0  0
    2.3780  -26.5290  100.1410 C   0  0  0  0  0  0
    2.9080  -19.8820  103.6340 H   0  0  0  0  0  0
    2.3140  -21.7270  102.2160 H   0  0  0  0  0  0
    2.0940  -24.3220  105.6570 H   0  0  0  0  0  0
    2.6360  -22.4390  107.0950 H   0  0  0  0  0  0
    2.2980  -18.1230  106.8690 H   0  0  0  0  0  0
    1.5790  -25.1360  103.5890 H   0  0  0  0  0  0
    6.0010  -20.8670  106.3860 H   0  0  0  0  0  0
    5.2740  -20.8500  104.8020 H   0  0  0  0  0  0
    9.4000  -16.7530  102.8940 H   0  0  0  0  0  0
    7.7210  -16.1400  101.1650 H   0  0  0  0  0  0
    5.4520  -17.0580  101.2320 H   0  0  0  0  0  0
    4.7540  -18.6390  103.0100 H   0  0  0  0  0  0
    1.1240  -19.7330  104.7510 H   0  0  0  0  0  0
   -2.4790  -18.0780  103.9880 H   0  0  0  0  0  0
   -0.8450  -17.4300  104.0240 H   0  0  0  0  0  0
   -1.7300  -17.6800  105.5270 H   0  0  0  0  0  0
   -1.6200  -20.0990  102.6150 H   0  0  0  0  0  0
   -0.2860  -21.0730  103.2190 H   0  0  0  0  0  0
    0.0060  -19.4290  102.6610 H   0  0  0  0  0  0
   -2.8880  -20.5900  104.6860 H   0  0  0  0  0  0
   -2.3320  -20.0740  106.2620 H   0  0  0  0  0  0
   -1.5770  -21.4630  105.4720 H   0  0  0  0  0  0
    1.2720  -17.4760  109.2470 H   0  0  0  0  0  0
    3.1950  -21.0080  111.3470 H   0  0  0  0  0  0
    3.2990  -21.2760  108.7350 H   0  0  0  0  0  0
    0.8470  -26.4720  101.8640 H   0  0  0  0  0  0
    0.3020  -26.6720   99.4370 H   0  0  0  0  0  0
    1.0450  -25.0430   99.1430 H   0  0  0  0  0  0
    3.2610  -26.0140   99.7610 H   0  0  0  0  0  0
    2.4470  -27.6100  100.0380 H   0  0  0  0  0  0
  1  2  1  0  0  0
  1  6  2  0  0  0
  1  7  1  0  0  0
  2  3  2  0  0  0
  2 39  1  0  0  0
  3  4  1  0  0  0
  3 40  1  0  0  0
  4  5  2  0  0  0
  4 10  1  0  0  0
  5  6  1  0  0  0
  5 41  1  0  0  0
  6 42  1  0  0  0
  7  8  1  0  0  0
  7  9  1  0  0  0
  8 11  2  0  0  0
  8 12  1  0  0  0
  9 22  1  0  0  0
  9 23  1  0  0  0
  9 43  1  0  0  0
 10 34  1  0  0  0
 10 44  1  0  0  0
 12 13  1  0  0  0
 12 45  1  0  0  0
 12 46  1  0  0  0
 13 14  1  0  0  0
 13 17  1  0  0  0
 14 15  2  0  0  0
 15 16  1  0  0  0
 16 17  2  0  0  0
 16 18  1  0  0  0
 17 21  1  0  0  0
 18 19  2  0  0  0
 18 47  1  0  0  0
 19 20  1  0  0  0
 19 48  1  0  0  0
 20 21  2  0  0  0
 20 49  1  0  0  0
 21 50  1  0  0  0
 22 30  2  0  0  0
 22 33  1  0  0  0
 23 24  2  0  0  0
 23 25  1  0  0  0
 25 26  1  0  0  0
 25 51  1  0  0  0
 26 27  1  0  0  0
 26 28  1  0  0  0
 26 29  1  0  0  0
 27 52  1  0  0  0
 27 53  1  0  0  0
 27 54  1  0  0  0
 28 55  1  0  0  0
 28 56  1  0  0  0
 28 57  1  0  0  0
 29 58  1  0  0  0
 29 59  1  0  0  0
 29 60  1  0  0  0
 30 31  1  0  0  0
 30 61  1  0  0  0
 31 32  1  0  0  0
 32 33  2  0  0  0
 32 62  1  0  0  0
 33 63  1  0  0  0
 34 35  2  0  0  0
 34 36  1  0  0  0
 36 37  1  0  0  0
 36 38  1  0  0  0
 36 64  1  0  0  0
 37 38  1  0  0  0
 37 65  1  0  0  0
 37 66  1  0  0  0
 38 67  1  0  0  0
 38 68  1  0  0  0
M  END
> <s_m_entry_id>
6

> <s_m_entry_name>
13_serie.6

> <s_pdb_PDB_format_version>
3.0

> <s_m_Source_Path>
/home/carles/Downloads/complexes

> <s_m_Source_File>
13_serie.sdf

> <i_m_Source_File_Index>
6

> <chiral flag>
0

> <version>
1

> <s_m_subgroup_title>
13_serie

> <s_m_subgroupid>
13_serie

> <b_m_subgroup_collapsed>
0

$$$$
glide-dockSARS_13g_3.8uM
                    3D
 Structure written by MMmdl.
 71 75  0  0  1  0            999 V2000
    2.7910  -20.9540  105.4880 C   0  0  0  0  0  0
    2.7560  -20.7850  104.0990 C   0  0  0  0  0  0
    2.3760  -21.8380  103.2790 C   0  0  0  0  0  0
    2.0120  -23.0710  103.8360 C   0  0  0  0  0  0
    2.0270  -23.2310  105.2250 C   0  0  0  0  0  0
    2.4170  -22.1780  106.0520 C   0  0  0  0  0  0
    3.1310  -19.8440  106.2960 N   0  0  0  0  0  0
    4.4320  -19.3930  106.3250 C   0  0  0  0  0  0
    2.0920  -19.1160  107.1140 C   0  0  2  0  0  0
    1.5560  -24.1580  103.0700 N   0  0  0  0  0  0
    4.7560  -18.3490  106.8980 O   0  0  0  0  0  0
    5.5720  -20.2140  105.6600 C   0  0  0  0  0  0
    6.6880  -19.4380  105.1140 N   0  0  0  0  0  0
    7.9290  -19.5680  105.6310 N   0  0  0  0  0  0
    8.7990  -18.7870  104.9030 N   0  0  0  0  0  0
    8.0700  -18.1730  103.9300 C   0  0  0  0  0  0
    6.7150  -18.5780  104.0250 C   0  0  0  0  0  0
    8.4680  -17.2720  102.9360 C   0  0  0  0  0  0
    7.4990  -16.8070  102.0470 C   0  0  0  0  0  0
    6.1720  -17.2280  102.1410 C   0  0  0  0  0  0
    5.7430  -18.1170  103.1290 C   0  0  0  0  0  0
    2.2410  -19.3280  108.6030 C   0  0  0  0  0  0
    0.5750  -19.1790  106.6990 C   0  0  0  0  0  0
   -0.2960  -18.8780  107.5160 O   0  0  0  0  0  0
    0.2710  -19.5070  105.4280 N   0  0  0  0  0  0
   -1.0470  -19.5360  104.7740 C   0  0  0  0  0  0
   -1.6380  -18.1100  104.6710 C   0  0  0  0  0  0
   -0.8470  -20.0880  103.3470 C   0  0  0  0  0  0
   -2.0470  -20.4590  105.5090 C   0  0  0  0  0  0
    1.7910  -18.3970  109.5380 C   0  0  0  0  0  0
    2.0020  -18.9160  111.1730 S   0  0  0  0  0  0
    2.7990  -20.3500  110.6250 C   0  0  0  0  0  0
    2.8440  -20.4300  109.2400 C   0  0  0  0  0  0
    1.7020  -24.3880  101.7450 C   0  0  0  0  0  0
    2.3490  -23.6750  100.9750 O   0  0  0  0  0  0
    0.8930  -25.5800  101.2000 C   0  0  0  0  0  0
   -0.2930  -25.1400  100.3150 C   0  0  0  0  0  0
    0.0230  -26.3630   99.4410 C   0  0  0  0  0  0
    1.4770  -26.2610   99.9420 C   0  0  0  0  0  0
    3.0130  -19.8400  103.6430 H   0  0  0  0  0  0
    2.3490  -21.6600  102.2180 H   0  0  0  0  0  0
    1.7320  -24.1690  105.6770 H   0  0  0  0  0  0
    2.3980  -22.3260  107.1210 H   0  0  0  0  0  0
    2.2960  -18.0610  106.9230 H   0  0  0  0  0  0
    1.0660  -24.8680  103.5920 H   0  0  0  0  0  0
    5.9510  -20.8710  106.4400 H   0  0  0  0  0  0
    5.2380  -20.8650  104.8560 H   0  0  0  0  0  0
    9.4940  -16.9360  102.8730 H   0  0  0  0  0  0
    7.7740  -16.1050  101.2730 H   0  0  0  0  0  0
    5.4500  -16.8430  101.4340 H   0  0  0  0  0  0
    4.7100  -18.4180  103.1950 H   0  0  0  0  0  0
    1.0430  -19.7680  104.8330 H   0  0  0  0  0  0
   -2.5930  -18.1080  104.1420 H   0  0  0  0  0  0
   -0.9670  -17.4360  104.1390 H   0  0  0  0  0  0
   -1.8190  -17.6790  105.6570 H   0  0  0  0  0  0
   -1.7790  -20.1000  102.7840 H   0  0  0  0  0  0
   -0.4710  -21.1090  103.3690 H   0  0  0  0  0  0
   -0.1400  -19.4890  102.7730 H   0  0  0  0  0  0
   -2.9610  -20.6020  104.9310 H   0  0  0  0  0  0
   -2.3560  -20.0470  106.4700 H   0  0  0  0  0  0
   -1.6170  -21.4420  105.6960 H   0  0  0  0  0  0
    1.3010  -17.4570  109.3350 H   0  0  0  0  0  0
    3.1890  -21.0570  111.3400 H   0  0  0  0  0  0
    3.3120  -21.2540  108.7240 H   0  0  0  0  0  0
    0.5920  -26.2680  101.9920 H   0  0  0  0  0  0
   -0.1490  -24.2000   99.7700 H   0  0  0  0  0  0
   -1.2690  -25.1360  100.8050 H   0  0  0  0  0  0
   -0.1210  -26.2310   98.3670 H   0  0  0  0  0  0
   -0.4910  -27.2720   99.7620 H   0  0  0  0  0  0
    1.9900  -27.2090  100.0980 H   0  0  0  0  0  0
    2.0860  -25.6230   99.2960 H   0  0  0  0  0  0
  1  2  1  0  0  0
  1  6  2  0  0  0
  1  7  1  0  0  0
  2  3  2  0  0  0
  2 40  1  0  0  0
  3  4  1  0  0  0
  3 41  1  0  0  0
  4  5  2  0  0  0
  4 10  1  0  0  0
  5  6  1  0  0  0
  5 42  1  0  0  0
  6 43  1  0  0  0
  7  8  1  0  0  0
  7  9  1  0  0  0
  8 11  2  0  0  0
  8 12  1  0  0  0
  9 22  1  0  0  0
  9 23  1  0  0  0
  9 44  1  0  0  0
 10 34  1  0  0  0
 10 45  1  0  0  0
 12 13  1  0  0  0
 12 46  1  0  0  0
 12 47  1  0  0  0
 13 14  1  0  0  0
 13 17  1  0  0  0
 14 15  2  0  0  0
 15 16  1  0  0  0
 16 17  2  0  0  0
 16 18  1  0  0  0
 17 21  1  0  0  0
 18 19  2  0  0  0
 18 48  1  0  0  0
 19 20  1  0  0  0
 19 49  1  0  0  0
 20 21  2  0  0  0
 20 50  1  0  0  0
 21 51  1  0  0  0
 22 30  2  0  0  0
 22 33  1  0  0  0
 23 24  2  0  0  0
 23 25  1  0  0  0
 25 26  1  0  0  0
 25 52  1  0  0  0
 26 27  1  0  0  0
 26 28  1  0  0  0
 26 29  1  0  0  0
 27 53  1  0  0  0
 27 54  1  0  0  0
 27 55  1  0  0  0
 28 56  1  0  0  0
 28 57  1  0  0  0
 28 58  1  0  0  0
 29 59  1  0  0  0
 29 60  1  0  0  0
 29 61  1  0  0  0
 30 31  1  0  0  0
 30 62  1  0  0  0
 31 32  1  0  0  0
 32 33  2  0  0  0
 32 63  1  0  0  0
 33 64  1  0  0  0
 34 35  2  0  0  0
 34 36  1  0  0  0
 36 37  1  0  0  0
 36 39  1  0  0  0
 36 65  1  0  0  0
 37 38  1  0  0  0
 37 66  1  0  0  0
 37 67  1  0  0  0
 38 39  1  0  0  0
 38 68  1  0  0  0
 38 69  1  0  0  0
 39 70  1  0  0  0
 39 71  1  0  0  0
M  END
> <s_m_entry_id>
7

> <s_m_entry_name>
13_serie.7

> <s_pdb_PDB_format_version>
3.0

> <s_m_Source_Path>
/home/carles/Downloads/complexes

> <s_m_Source_File>
13_serie.sdf

> <i_m_Source_File_Index>
7

> <chiral flag>
0

> <version>
1

> <s_m_subgroup_title>
13_serie

> <s_m_subgroupid>
13_serie

> <b_m_subgroup_collapsed>
0

$$$$
glide-dockSARS_13h_mt100uM
                    3D
 Structure written by MMmdl.
 77 81  0  0  1  0            999 V2000
    2.6710  -20.3660  105.6540 C   0  0  0  0  0  0
    2.7020  -20.3690  104.2560 C   0  0  0  0  0  0
    2.2190  -21.4630  103.5530 C   0  0  0  0  0  0
    1.6830  -22.5630  104.2390 C   0  0  0  0  0  0
    1.6890  -22.5690  105.6380 C   0  0  0  0  0  0
    2.1830  -21.4750  106.3480 C   0  0  0  0  0  0
    3.0640  -19.2020  106.3490 N   0  0  0  0  0  0
    4.4030  -18.8940  106.4280 C   0  0  0  0  0  0
    2.0440  -18.1960  106.8300 C   0  0  2  0  0  0
    1.0420  -23.6450  103.6020 N   0  0  0  0  0  0
    4.8010  -17.8250  106.8980 O   0  0  0  0  0  0
    5.4940  -19.8790  105.9190 C   0  0  0  0  0  0
    6.6540  -19.2440  105.2830 N   0  0  0  0  0  0
    7.9010  -19.5510  105.6940 N   0  0  0  0  0  0
    8.8080  -18.8750  104.9070 N   0  0  0  0  0  0
    8.0990  -18.1440  104.0070 C   0  0  0  0  0  0
    6.7150  -18.3710  104.2020 C   0  0  0  0  0  0
    8.5450  -17.2730  103.0060 C   0  0  0  0  0  0
    7.5830  -16.6570  102.2060 C   0  0  0  0  0  0
    6.2210  -16.9000  102.3940 C   0  0  0  0  0  0
    5.7500  -17.7590  103.3920 C   0  0  0  0  0  0
    2.1470  -17.8770  108.2980 C   0  0  0  0  0  0
    0.5230  -18.3370  106.4480 C   0  0  0  0  0  0
   -0.3500  -17.9420  107.2280 O   0  0  0  0  0  0
    0.2110  -18.8580  105.2450 N   0  0  0  0  0  0
   -1.1230  -19.0910  104.6700 C   0  0  0  0  0  0
   -0.9290  -19.7290  103.2800 C   0  0  0  0  0  0
   -1.9430  -20.0750  105.5360 C   0  0  0  0  0  0
   -1.8980  -17.7640  104.4900 C   0  0  0  0  0  0
    2.3950  -16.5910  108.7720 C   0  0  0  0  0  0
    2.3160  -16.4870  110.4990 S   0  0  0  0  0  0
    2.0020  -18.1920  110.5970 C   0  0  0  0  0  0
    1.9650  -18.7940  109.3460 C   0  0  0  0  0  0
    0.9510  -23.9310  102.2820 C   0  0  0  0  0  0
    1.6070  -23.3750  101.4000 O   0  0  0  0  0  0
   -0.0800  -25.0140  101.8930 C   0  0  0  0  0  0
   -1.4430  -24.3040  101.6620 C   0  0  0  0  0  0
   -2.5140  -25.3280  101.2370 C   0  0  0  0  0  0
   -2.0790  -26.1220   99.9900 C   0  0  0  0  0  0
   -0.7100  -26.8040  100.1870 C   0  0  0  0  0  0
    0.3870  -25.8180  100.6460 C   0  0  0  0  0  0
    3.0720  -19.5180  103.7060 H   0  0  0  0  0  0
    2.2350  -21.4010  102.4770 H   0  0  0  0  0  0
    1.2840  -23.4070  106.1870 H   0  0  0  0  0  0
    2.1510  -21.4800  107.4270 H   0  0  0  0  0  0
    2.3090  -17.2860  106.2870 H   0  0  0  0  0  0
    0.5390  -24.2600  104.2230 H   0  0  0  0  0  0
    5.8330  -20.4590  106.7790 H   0  0  0  0  0  0
    5.1250  -20.6030  105.1970 H   0  0  0  0  0  0
    9.6000  -17.0730  102.8750 H   0  0  0  0  0  0
    7.8960  -15.9670  101.4350 H   0  0  0  0  0  0
    5.5080  -16.3940  101.7580 H   0  0  0  0  0  0
    4.6920  -17.9160  103.5340 H   0  0  0  0  0  0
    0.9790  -19.1690  104.6690 H   0  0  0  0  0  0
   -1.8810  -19.8770  102.7690 H   0  0  0  0  0  0
   -0.4500  -20.7060  103.3490 H   0  0  0  0  0  0
   -0.3090  -19.1040  102.6350 H   0  0  0  0  0  0
   -2.8960  -20.3230  105.0660 H   0  0  0  0  0  0
   -2.1730  -19.6600  106.5180 H   0  0  0  0  0  0
   -1.4030  -21.0100  105.6960 H   0  0  0  0  0  0
   -2.8580  -17.9240  103.9970 H   0  0  0  0  0  0
   -1.3350  -17.0520  103.8860 H   0  0  0  0  0  0
   -2.1100  -17.2850  105.4460 H   0  0  0  0  0  0
    2.5870  -15.7020  108.1880 H   0  0  0  0  0  0
    1.8690  -18.6570  111.5620 H   0  0  0  0  0  0
    1.7740  -19.8440  109.1920 H   0  0  0  0  0  0
   -0.1740  -25.6730  102.7580 H   0  0  0  0  0  0
   -1.8120  -23.8260  102.5740 H   0  0  0  0  0  0
   -1.3780  -23.5870  100.8370 H   0  0  0  0  0  0
   -3.4580  -24.8170  101.0380 H   0  0  0  0  0  0
   -2.7080  -26.0200  102.0590 H   0  0  0  0  0  0
   -2.8350  -26.8680   99.7460 H   0  0  0  0  0  0
   -2.0290  -25.4510   99.1300 H   0  0  0  0  0  0
   -0.4070  -27.2730   99.2510 H   0  0  0  0  0  0
   -0.8070  -27.6150  100.9100 H   0  0  0  0  0  0
    1.2770  -26.4120  100.8660 H   0  0  0  0  0  0
    0.5530  -25.1570   99.7900 H   0  0  0  0  0  0
  1  2  1  0  0  0
  1  6  2  0  0  0
  1  7  1  0  0  0
  2  3  2  0  0  0
  2 42  1  0  0  0
  3  4  1  0  0  0
  3 43  1  0  0  0
  4  5  2  0  0  0
  4 10  1  0  0  0
  5  6  1  0  0  0
  5 44  1  0  0  0
  6 45  1  0  0  0
  7  8  1  0  0  0
  7  9  1  0  0  0
  8 11  2  0  0  0
  8 12  1  0  0  0
  9 22  1  0  0  0
  9 23  1  0  0  0
  9 46  1  0  0  0
 10 34  1  0  0  0
 10 47  1  0  0  0
 12 13  1  0  0  0
 12 48  1  0  0  0
 12 49  1  0  0  0
 13 14  1  0  0  0
 13 17  1  0  0  0
 14 15  2  0  0  0
 15 16  1  0  0  0
 16 17  2  0  0  0
 16 18  1  0  0  0
 17 21  1  0  0  0
 18 19  2  0  0  0
 18 50  1  0  0  0
 19 20  1  0  0  0
 19 51  1  0  0  0
 20 21  2  0  0  0
 20 52  1  0  0  0
 21 53  1  0  0  0
 22 30  2  0  0  0
 22 33  1  0  0  0
 23 24  2  0  0  0
 23 25  1  0  0  0
 25 26  1  0  0  0
 25 54  1  0  0  0
 26 27  1  0  0  0
 26 28  1  0  0  0
 26 29  1  0  0  0
 27 55  1  0  0  0
 27 56  1  0  0  0
 27 57  1  0  0  0
 28 58  1  0  0  0
 28 59  1  0  0  0
 28 60  1  0  0  0
 29 61  1  0  0  0
 29 62  1  0  0  0
 29 63  1  0  0  0
 30 31  1  0  0  0
 30 64  1  0  0  0
 31 32  1  0  0  0
 32 33  2  0  0  0
 32 65  1  0  0  0
 33 66  1  0  0  0
 34 35  2  0  0  0
 34 36  1  0  0  0
 36 37  1  0  0  0
 36 41  1  0  0  0
 36 67  1  0  0  0
 37 38  1  0  0  0
 37 68  1  0  0  0
 37 69  1  0  0  0
 38 39  1  0  0  0
 38 70  1  0  0  0
 38 71  1  0  0  0
 39 40  1  0  0  0
 39 72  1  0  0  0
 39 73  1  0  0  0
 40 41  1  0  0  0
 40 74  1  0  0  0
 40 75  1  0  0  0
 41 76  1  0  0  0
 41 77  1  0  0  0
M  END
> <s_m_entry_id>
8

> <s_m_entry_name>
13_serie.8

> <s_pdb_PDB_format_version>
3.0

> <s_m_Source_Path>
/home/carles/Downloads/complexes

> <s_m_Source_File>
13_serie.sdf

> <i_m_Source_File_Index>
8

> <chiral flag>
0

> <version>
1

> <s_m_subgroup_title>
13_serie

> <s_m_subgroupid>
13_serie

> <b_m_subgroup_collapsed>
0

$$$$
glide-dockSARS_13i_inactive
                    3D
 Structure written by MMmdl.
 71 75  0  0  1  0            999 V2000
    2.7720  -20.1070  106.5040 C   0  0  0  0  0  0
    2.4400  -20.6870  105.2750 C   0  0  0  0  0  0
    1.9270  -21.9820  105.2420 C   0  0  0  0  0  0
    1.6850  -22.6700  106.4410 C   0  0  0  0  0  0
    2.0010  -22.0720  107.6610 C   0  0  0  0  0  0
    2.5490  -20.7970  107.6970 C   0  0  0  0  0  0
    3.3200  -18.8150  106.5620 N   0  0  0  0  0  0
    4.6700  -18.6420  106.4240 C   0  0  0  0  0  0
    2.4080  -17.6700  106.8660 C   0  0  2  0  0  0
    1.2000  -23.9890  106.4980 N   0  0  0  0  0  0
    5.2010  -17.5600  106.6680 O   0  0  0  0  0  0
    5.5880  -19.7790  105.9030 C   0  0  0  0  0  0
    6.7610  -19.2620  105.1940 N   0  0  0  0  0  0
    8.0010  -19.4210  105.6960 N   0  0  0  0  0  0
    8.8870  -18.7320  104.8980 N   0  0  0  0  0  0
    8.1660  -18.1360  103.9080 C   0  0  0  0  0  0
    6.8040  -18.4940  104.0390 C   0  0  0  0  0  0
    8.5710  -17.2730  102.8830 C   0  0  0  0  0  0
    7.6000  -16.8120  101.9920 C   0  0  0  0  0  0
    6.2640  -17.1950  102.1170 C   0  0  0  0  0  0
    5.8280  -18.0380  103.1430 C   0  0  0  0  0  0
    2.3760  -16.6360  105.7660 C   0  0  0  0  0  0
    2.5190  -17.0820  108.3110 C   0  0  0  0  0  0
    2.8010  -17.8450  109.2350 O   0  0  0  0  0  0
    2.2080  -15.7810  108.4960 N   0  0  0  0  0  0
    2.0850  -15.0270  109.7520 C   0  0  0  0  0  0
    1.8010  -13.5570  109.3810 C   0  0  0  0  0  0
    0.9030  -15.5680  110.5800 C   0  0  0  0  0  0
    3.3680  -15.0620  110.6110 C   0  0  0  0  0  0
    1.4530  -16.7030  104.7260 C   0  0  0  0  0  0
    1.6490  -15.4280  103.5670 S   0  0  0  0  0  0
    2.9890  -14.7960  104.4670 C   0  0  0  0  0  0
    3.2560  -15.5450  105.6040 C   0  0  0  0  0  0
    0.3920  -24.6710  105.6570 C   0  0  0  0  0  0
    0.3280  -25.8950  105.7430 O   0  0  0  0  0  0
   -0.4590  -23.9490  104.6350 C   0  0  0  0  0  0
   -0.6440  -24.5180  103.3680 C   0  0  0  0  0  0
   -1.4150  -23.8640  102.4110 C   0  0  0  0  0  0
   -2.0090  -22.6440  102.7210 C   0  0  0  0  0  0
   -1.8570  -22.0810  103.9850 C   0  0  0  0  0  0
   -1.0920  -22.7380  104.9430 C   0  0  0  0  0  0
    2.6100  -20.1520  104.3510 H   0  0  0  0  0  0
    1.7270  -22.4400  104.2840 H   0  0  0  0  0  0
    1.8320  -22.5980  108.5880 H   0  0  0  0  0  0
    2.8010  -20.3530  108.6480 H   0  0  0  0  0  0
    1.4070  -18.1040  106.8940 H   0  0  0  0  0  0
    1.5580  -24.5310  107.2730 H   0  0  0  0  0  0
    5.0720  -20.4330  105.2030 H   0  0  0  0  0  0
    5.9090  -20.3930  106.7470 H   0  0  0  0  0  0
    9.6000  -16.9570  102.7980 H   0  0  0  0  0  0
    7.8830  -16.1390  101.1960 H   0  0  0  0  0  0
    5.5420  -16.8080  101.4110 H   0  0  0  0  0  0
    4.7850  -18.3000  103.2470 H   0  0  0  0  0  0
    1.9870  -15.2520  107.6650 H   0  0  0  0  0  0
    1.6910  -12.9330  110.2680 H   0  0  0  0  0  0
    0.8830  -13.4570  108.8000 H   0  0  0  0  0  0
    2.6100  -13.1320  108.7850 H   0  0  0  0  0  0
    0.6980  -14.9480  111.4530 H   0  0  0  0  0  0
    1.0870  -16.5840  110.9340 H   0  0  0  0  0  0
    0.0020  -15.5960  109.9690 H   0  0  0  0  0  0
    3.2440  -14.4980  111.5370 H   0  0  0  0  0  0
    4.2340  -14.6430  110.0990 H   0  0  0  0  0  0
    3.6180  -16.0800  110.8950 H   0  0  0  0  0  0
    0.6770  -17.4430  104.5860 H   0  0  0  0  0  0
    3.5150  -13.9200  104.1160 H   0  0  0  0  0  0
    4.0620  -15.3130  106.2860 H   0  0  0  0  0  0
   -0.1870  -25.4670  103.1170 H   0  0  0  0  0  0
   -1.5490  -24.3020  101.4320 H   0  0  0  0  0  0
   -2.6030  -22.1350  101.9760 H   0  0  0  0  0  0
   -2.3280  -21.1380  104.2210 H   0  0  0  0  0  0
   -0.9690  -22.2910  105.9200 H   0  0  0  0  0  0
  1  2  1  0  0  0
  1  6  2  0  0  0
  1  7  1  0  0  0
  2  3  2  0  0  0
  2 42  1  0  0  0
  3  4  1  0  0  0
  3 43  1  0  0  0
  4  5  2  0  0  0
  4 10  1  0  0  0
  5  6  1  0  0  0
  5 44  1  0  0  0
  6 45  1  0  0  0
  7  8  1  0  0  0
  7  9  1  0  0  0
  8 11  2  0  0  0
  8 12  1  0  0  0
  9 22  1  0  0  0
  9 23  1  0  0  0
  9 46  1  0  0  0
 10 34  1  0  0  0
 10 47  1  0  0  0
 12 13  1  0  0  0
 12 48  1  0  0  0
 12 49  1  0  0  0
 13 14  1  0  0  0
 13 17  1  0  0  0
 14 15  2  0  0  0
 15 16  1  0  0  0
 16 17  2  0  0  0
 16 18  1  0  0  0
 17 21  1  0  0  0
 18 19  2  0  0  0
 18 50  1  0  0  0
 19 20  1  0  0  0
 19 51  1  0  0  0
 20 21  2  0  0  0
 20 52  1  0  0  0
 21 53  1  0  0  0
 22 30  2  0  0  0
 22 33  1  0  0  0
 23 24  2  0  0  0
 23 25  1  0  0  0
 25 26  1  0  0  0
 25 54  1  0  0  0
 26 27  1  0  0  0
 26 28  1  0  0  0
 26 29  1  0  0  0
 27 55  1  0  0  0
 27 56  1  0  0  0
 27 57  1  0  0  0
 28 58  1  0  0  0
 28 59  1  0  0  0
 28 60  1  0  0  0
 29 61  1  0  0  0
 29 62  1  0  0  0
 29 63  1  0  0  0
 30 31  1  0  0  0
 30 64  1  0  0  0
 31 32  1  0  0  0
 32 33  2  0  0  0
 32 65  1  0  0  0
 33 66  1  0  0  0
 34 35  2  0  0  0
 34 36  1  0  0  0
 36 37  1  0  0  0
 36 41  2  0  0  0
 37 38  2  0  0  0
 37 67  1  0  0  0
 38 39  1  0  0  0
 38 68  1  0  0  0
 39 40  2  0  0  0
 39 69  1  0  0  0
 40 41  1  0  0  0
 40 70  1  0  0  0
 41 71  1  0  0  0
M  END
> <s_m_entry_id>
9

> <s_m_entry_name>
13_serie.9

> <s_pdb_PDB_format_version>
3.0

> <s_m_Source_Path>
/home/carles/Downloads/complexes

> <s_m_Source_File>
13_serie.sdf

> <i_m_Source_File_Index>
9

> <chiral flag>
0

> <version>
1

> <s_m_subgroup_title>
13_serie

> <s_m_subgroupid>
13_serie

> <b_m_subgroup_collapsed>
0

$$$$
glide-dockSARS_13j_mt100uM
                    3D
 Structure written by MMmdl.
 68 72  0  0  1  0            999 V2000
    2.1350  -19.6170  106.7250 C   0  0  0  0  0  0
    1.1780  -19.7130  105.7080 C   0  0  0  0  0  0
    0.5080  -20.9150  105.4990 C   0  0  0  0  0  0
    0.8190  -22.0260  106.2850 C   0  0  0  0  0  0
    1.7590  -21.9290  107.3130 C   0  0  0  0  0  0
    2.4000  -20.7170  107.5500 C   0  0  0  0  0  0
    2.8150  -18.3970  106.9320 N   0  0  0  0  0  0
    4.1550  -18.3060  106.6570 C   0  0  0  0  0  0
    2.0110  -17.2270  107.3990 C   0  0  2  0  0  0
    0.1670  -23.2400  106.0410 N   0  0  0  0  0  0
    4.8020  -17.2850  106.8980 O   0  0  0  0  0  0
    4.8970  -19.4950  105.9890 C   0  0  0  0  0  0
    6.1940  -19.1640  105.3980 N   0  0  0  0  0  0
    7.3270  -19.6720  105.9210 N   0  0  0  0  0  0
    8.4020  -19.1870  105.2200 N   0  0  0  0  0  0
    7.9100  -18.3770  104.2450 C   0  0  0  0  0  0
    6.4950  -18.3460  104.3200 C   0  0  0  0  0  0
    8.5840  -17.6240  103.2820 C   0  0  0  0  0  0
    7.8170  -16.8670  102.3950 C   0  0  0  0  0  0
    6.4230  -16.8560  102.4680 C   0  0  0  0  0  0
    5.7240  -17.5900  103.4310 C   0  0  0  0  0  0
    1.8040  -16.1850  106.3310 C   0  0  0  0  0  0
    2.3800  -16.6380  108.7970 C   0  0  0  0  0  0
    2.8020  -17.4050  109.6620 O   0  0  0  0  0  0
    2.1110  -15.3290  109.0060 N   0  0  0  0  0  0
    2.1530  -14.5340  110.2390 C   0  0  0  0  0  0
    3.3420  -14.8840  111.1660 C   0  0  0  0  0  0
    2.2850  -13.0530  109.8330 C   0  0  0  0  0  0
    0.8310  -14.7300  111.0100 C   0  0  0  0  0  0
    0.6190  -16.0760  105.6070 C   0  0  0  0  0  0
    0.6570  -14.7970  104.4390 S   0  0  0  0  0  0
    2.2750  -14.3930  104.9140 C   0  0  0  0  0  0
    2.7440  -15.2150  105.9280 C   0  0  0  0  0  0
    0.7400  -24.4010  105.6560 C   0  0  0  0  0  0
    0.1430  -25.4680  105.7830 O   0  0  0  0  0  0
    2.0540  -24.3790  105.0540 C   0  0  0  0  0  0
    2.4650  -23.2810  103.7620 S   0  0  0  0  0  0
    4.0240  -24.0260  103.5930 C   0  0  0  0  0  0
    4.2060  -25.0680  104.4830 C   0  0  0  0  0  0
    3.0910  -25.2730  105.2990 C   0  0  0  0  0  0
    0.9640  -18.8650  105.0750 H   0  0  0  0  0  0
   -0.2280  -20.9920  104.7120 H   0  0  0  0  0  0
    1.9950  -22.7870  107.9280 H   0  0  0  0  0  0
    3.1190  -20.6420  108.3550 H   0  0  0  0  0  0
    1.0230  -17.6370  107.6200 H   0  0  0  0  0  0
   -0.7910  -23.3010  106.3500 H   0  0  0  0  0  0
    4.2890  -19.9190  105.1890 H   0  0  0  0  0  0
    5.0440  -20.2780  106.7370 H   0  0  0  0  0  0
    9.6620  -17.6170  103.2310 H   0  0  0  0  0  0
    8.3100  -16.2650  101.6450 H   0  0  0  0  0  0
    5.8660  -16.2470  101.7690 H   0  0  0  0  0  0
    4.6460  -17.5590  103.4900 H   0  0  0  0  0  0
    1.7810  -14.8180  108.2020 H   0  0  0  0  0  0
    3.4490  -14.1670  111.9800 H   0  0  0  0  0  0
    4.2840  -14.9060  110.6150 H   0  0  0  0  0  0
    3.2020  -15.8600  111.6300 H   0  0  0  0  0  0
    2.3340  -12.3960  110.7040 H   0  0  0  0  0  0
    1.4390  -12.7250  109.2270 H   0  0  0  0  0  0
    3.1910  -12.8820  109.2480 H   0  0  0  0  0  0
    0.7980  -14.1210  111.9120 H   0  0  0  0  0  0
    0.6930  -15.7740  111.3010 H   0  0  0  0  0  0
   -0.0280  -14.4480  110.4010 H   0  0  0  0  0  0
   -0.2710  -16.6830  105.7060 H   0  0  0  0  0  0
    2.7960  -13.5800  104.4310 H   0  0  0  0  0  0
    3.7280  -15.1070  106.3650 H   0  0  0  0  0  0
    4.7180  -23.6720  102.8460 H   0  0  0  0  0  0
    5.1010  -25.6720  104.5150 H   0  0  0  0  0  0
    3.0340  -26.0560  106.0400 H   0  0  0  0  0  0
  1  2  1  0  0  0
  1  6  2  0  0  0
  1  7  1  0  0  0
  2  3  2  0  0  0
  2 41  1  0  0  0
  3  4  1  0  0  0
  3 42  1  0  0  0
  4  5  2  0  0  0
  4 10  1  0  0  0
  5  6  1  0  0  0
  5 43  1  0  0  0
  6 44  1  0  0  0
  7  8  1  0  0  0
  7  9  1  0  0  0
  8 11  2  0  0  0
  8 12  1  0  0  0
  9 22  1  0  0  0
  9 23  1  0  0  0
  9 45  1  0  0  0
 10 34  1  0  0  0
 10 46  1  0  0  0
 12 13  1  0  0  0
 12 47  1  0  0  0
 12 48  1  0  0  0
 13 14  1  0  0  0
 13 17  1  0  0  0
 14 15  2  0  0  0
 15 16  1  0  0  0
 16 17  2  0  0  0
 16 18  1  0  0  0
 17 21  1  0  0  0
 18 19  2  0  0  0
 18 49  1  0  0  0
 19 20  1  0  0  0
 19 50  1  0  0  0
 20 21  2  0  0  0
 20 51  1  0  0  0
 21 52  1  0  0  0
 22 30  2  0  0  0
 22 33  1  0  0  0
 23 24  2  0  0  0
 23 25  1  0  0  0
 25 26  1  0  0  0
 25 53  1  0  0  0
 26 27  1  0  0  0
 26 28  1  0  0  0
 26 29  1  0  0  0
 27 54  1  0  0  0
 27 55  1  0  0  0
 27 56  1  0  0  0
 28 57  1  0  0  0
 28 58  1  0  0  0
 28 59  1  0  0  0
 29 60  1  0  0  0
 29 61  1  0  0  0
 29 62  1  0  0  0
 30 31  1  0  0  0
 30 63  1  0  0  0
 31 32  1  0  0  0
 32 33  2  0  0  0
 32 64  1  0  0  0
 33 65  1  0  0  0
 34 35  2  0  0  0
 34 36  1  0  0  0
 36 37  1  0  0  0
 36 40  2  0  0  0
 37 38  1  0  0  0
 38 39  2  0  0  0
 38 66  1  0  0  0
 39 40  1  0  0  0
 39 67  1  0  0  0
 40 68  1  0  0  0
M  END
> <s_m_entry_id>
10

> <s_m_entry_name>
13_serie.10

> <s_pdb_PDB_format_version>
3.0

> <s_m_Source_Path>
/home/carles/Downloads/complexes

> <s_m_Source_File>
13_serie.sdf

> <i_m_Source_File_Index>
10

> <chiral flag>
0

> <version>
1

> <s_m_subgroup_title>
13_serie

> <s_m_subgroupid>
13_serie

> <b_m_subgroup_collapsed>
0

$$$$
glide-dockSARS_13k_26uM
                    3D
 Structure written by MMmdl.
 67 71  0  0  1  0            999 V2000
    2.6230  -20.3040  105.5200 C   0  0  0  0  0  0
    2.2390  -21.4980  106.1390 C   0  0  0  0  0  0
    1.6830  -22.5230  105.3770 C   0  0  0  0  0  0
    1.5250  -22.3650  103.9960 C   0  0  0  0  0  0
    1.8980  -21.1600  103.3820 C   0  0  0  0  0  0
    2.4360  -20.1280  104.1440 C   0  0  0  0  0  0
    3.1550  -19.2640  106.3040 N   0  0  0  0  0  0
    4.5110  -19.0520  106.3250 C   0  0  0  0  0  0
    2.1770  -18.2710  106.8410 C   0  0  2  0  0  0
    0.9240  -23.4200  103.2890 N   0  0  0  0  0  0
    5.0110  -18.0660  106.8760 O   0  0  0  0  0  0
    5.4860  -20.0460  105.6460 C   0  0  0  0  0  0
    6.6640  -19.4040  105.0660 N   0  0  0  0  0  0
    7.8860  -19.6040  105.5960 N   0  0  0  0  0  0
    8.8010  -18.8580  104.8900 N   0  0  0  0  0  0
    8.1170  -18.1860  103.9220 C   0  0  0  0  0  0
    6.7450  -18.5270  103.9950 C   0  0  0  0  0  0
    8.5640  -17.2730  102.9610 C   0  0  0  0  0  0
    7.6240  -16.7280  102.0870 C   0  0  0  0  0  0
    6.2770  -17.0850  102.1600 C   0  0  0  0  0  0
    5.8000  -17.9900  103.1120 C   0  0  0  0  0  0
    1.9260  -17.1500  105.8710 C   0  0  0  0  0  0
    2.3920  -17.7810  108.3070 C   0  0  0  0  0  0
    2.9550  -18.5390  109.0960 O   0  0  0  0  0  0
    1.8660  -16.5870  108.6550 N   0  0  0  0  0  0
    1.9530  -15.8590  109.9300 C   0  0  0  0  0  0
    3.2940  -15.1010  110.0220 C   0  0  0  0  0  0
    0.8100  -14.8250  109.9380 C   0  0  0  0  0  0
    1.8040  -16.7760  111.1680 C   0  0  0  0  0  0
    0.7690  -17.0700  105.1030 C   0  0  0  0  0  0
    0.7620  -15.6980  104.0460 S   0  0  0  0  0  0
    2.3220  -15.2230  104.6260 C   0  0  0  0  0  0
    2.8110  -16.0940  105.5890 C   0  0  0  0  0  0
    1.1520  -23.7930  102.0100 C   0  0  0  0  0  0
    2.0020  -23.3010  101.2650 O   0  0  0  0  0  0
    0.2800  -24.8420  101.5420 C   0  0  0  0  0  0
   -0.9260  -25.0490  102.1430 O   0  0  0  0  0  0
   -1.6000  -26.0700  101.4690 N   0  0  0  0  0  0
   -0.7930  -26.4480  100.5040 C   0  0  0  0  0  0
    0.3850  -25.7070  100.4690 C   0  0  0  0  0  0
    2.3670  -21.6300  107.2050 H   0  0  0  0  0  0
    1.3870  -23.4420  105.8650 H   0  0  0  0  0  0
    1.7580  -21.0070  102.3220 H   0  0  0  0  0  0
    2.7020  -19.1960  103.6670 H   0  0  0  0  0  0
    1.2440  -18.8260  106.9480 H   0  0  0  0  0  0
    0.2620  -23.9790  103.8070 H   0  0  0  0  0  0
    5.0290  -20.6250  104.8440 H   0  0  0  0  0  0
    5.8020  -20.7590  106.4070 H   0  0  0  0  0  0
    9.6020  -16.9820  102.9090 H   0  0  0  0  0  0
    7.9400  -16.0080  101.3450 H   0  0  0  0  0  0
    5.5790  -16.6360  101.4670 H   0  0  0  0  0  0
    4.7540  -18.2460  103.1670 H   0  0  0  0  0  0
    1.4180  -16.0740  107.9130 H   0  0  0  0  0  0
    3.3680  -14.5290  110.9480 H   0  0  0  0  0  0
    3.4190  -14.3990  109.1970 H   0  0  0  0  0  0
    4.1460  -15.7760  109.9990 H   0  0  0  0  0  0
    0.7740  -14.2600  110.8700 H   0  0  0  0  0  0
   -0.1600  -15.3030  109.8050 H   0  0  0  0  0  0
    0.9190  -14.1010  109.1300 H   0  0  0  0  0  0
    1.6960  -16.2020  112.0870 H   0  0  0  0  0  0
    2.6840  -17.4100  111.3020 H   0  0  0  0  0  0
    0.9320  -17.4260  111.0860 H   0  0  0  0  0  0
   -0.0670  -17.7540  105.1060 H   0  0  0  0  0  0
    2.8020  -14.3380  104.2330 H   0  0  0  0  0  0
    3.7690  -15.9670  106.0710 H   0  0  0  0  0  0
   -1.0600  -27.2500   99.8300 H   0  0  0  0  0  0
    1.2020  -25.7970   99.7690 H   0  0  0  0  0  0
  1  2  1  0  0  0
  1  6  2  0  0  0
  1  7  1  0  0  0
  2  3  2  0  0  0
  2 41  1  0  0  0
  3  4  1  0  0  0
  3 42  1  0  0  0
  4  5  2  0  0  0
  4 10  1  0  0  0
  5  6  1  0  0  0
  5 43  1  0  0  0
  6 44  1  0  0  0
  7  8  1  0  0  0
  7  9  1  0  0  0
  8 11  2  0  0  0
  8 12  1  0  0  0
  9 22  1  0  0  0
  9 23  1  0  0  0
  9 45  1  0  0  0
 10 34  1  0  0  0
 10 46  1  0  0  0
 12 13  1  0  0  0
 12 47  1  0  0  0
 12 48  1  0  0  0
 13 14  1  0  0  0
 13 17  1  0  0  0
 14 15  2  0  0  0
 15 16  1  0  0  0
 16 17  2  0  0  0
 16 18  1  0  0  0
 17 21  1  0  0  0
 18 19  2  0  0  0
 18 49  1  0  0  0
 19 20  1  0  0  0
 19 50  1  0  0  0
 20 21  2  0  0  0
 20 51  1  0  0  0
 21 52  1  0  0  0
 22 30  2  0  0  0
 22 33  1  0  0  0
 23 24  2  0  0  0
 23 25  1  0  0  0
 25 26  1  0  0  0
 25 53  1  0  0  0
 26 27  1  0  0  0
 26 28  1  0  0  0
 26 29  1  0  0  0
 27 54  1  0  0  0
 27 55  1  0  0  0
 27 56  1  0  0  0
 28 57  1  0  0  0
 28 58  1  0  0  0
 28 59  1  0  0  0
 29 60  1  0  0  0
 29 61  1  0  0  0
 29 62  1  0  0  0
 30 31  1  0  0  0
 30 63  1  0  0  0
 31 32  1  0  0  0
 32 33  2  0  0  0
 32 64  1  0  0  0
 33 65  1  0  0  0
 34 35  2  0  0  0
 34 36  1  0  0  0
 36 37  1  0  0  0
 36 40  2  0  0  0
 37 38  1  0  0  0
 38 39  2  0  0  0
 39 40  1  0  0  0
 39 66  1  0  0  0
 40 67  1  0  0  0
M  END
> <s_m_entry_id>
11

> <s_m_entry_name>
13_serie.11

> <s_pdb_PDB_format_version>
3.0

> <s_m_Source_Path>
/home/carles/Downloads/complexes

> <s_m_Source_File>
13_serie.sdf

> <i_m_Source_File_Index>
11

> <chiral flag>
0

> <version>
1

> <s_m_subgroup_title>
13_serie

> <s_m_subgroupid>
13_serie

> <b_m_subgroup_collapsed>
0

$$$$
glide-dockSARS_13l_inactive
                    3D
 Structure written by MMmdl.
 74 77  0  0  1  0            999 V2000
    2.6320  -20.0770  106.5140 C   0  0  0  0  0  0
    2.0490  -20.5810  105.3460 C   0  0  0  0  0  0
    1.4660  -21.8480  105.3570 C   0  0  0  0  0  0
    1.4440  -22.5940  106.5430 C   0  0  0  0  0  0
    1.9990  -22.0710  107.7090 C   0  0  0  0  0  0
    2.5960  -20.8160  107.6990 C   0  0  0  0  0  0
    3.2280  -18.8050  106.5100 N   0  0  0  0  0  0
    4.5900  -18.7020  106.4450 C   0  0  0  0  0  0
    2.3590  -17.6270  106.8080 C   0  0  2  0  0  0
    0.9600  -23.9090  106.6230 N   0  0  0  0  0  0
    5.1820  -17.6720  106.7670 O   0  0  0  0  0  0
    5.4500  -19.8690  105.9040 C   0  0  0  0  0  0
    6.6470  -19.3960  105.2040 N   0  0  0  0  0  0
    7.8790  -19.6630  105.6820 N   0  0  0  0  0  0
    8.8000  -18.9970  104.8990 N   0  0  0  0  0  0
    8.1060  -18.3020  103.9550 C   0  0  0  0  0  0
    6.7270  -18.5770  104.0880 C   0  0  0  0  0  0
    8.5550  -17.4130  102.9720 C   0  0  0  0  0  0
    7.6080  -16.8440  102.1190 C   0  0  0  0  0  0
    6.2510  -17.1450  102.2430 C   0  0  0  0  0  0
    5.7730  -18.0120  103.2310 C   0  0  0  0  0  0
    2.4730  -16.5380  105.7690 C   0  0  0  0  0  0
    2.4140  -17.1070  108.2780 C   0  0  0  0  0  0
    2.8000  -17.8640  109.1690 O   0  0  0  0  0  0
    1.9700  -15.8550  108.5090 N   0  0  0  0  0  0
    1.9150  -15.1260  109.7830 C   0  0  0  0  0  0
    1.3450  -13.7260  109.4880 C   0  0  0  0  0  0
    0.9770  -15.8370  110.7860 C   0  0  0  0  0  0
    3.3260  -14.9540  110.3920 C   0  0  0  0  0  0
    1.6380  -16.5020  104.6530 C   0  0  0  0  0  0
    1.9970  -15.1860  103.5830 S   0  0  0  0  0  0
    3.2830  -14.6700  104.6260 C   0  0  0  0  0  0
    3.4140  -15.4870  105.7420 C   0  0  0  0  0  0
   -0.1140  -24.5210  105.9870 C   0  0  0  0  0  0
   -0.8650  -23.6490  105.2720 O   0  0  0  0  0  0
   -0.3620  -25.7200  106.0930 O   0  0  0  0  0  0
   -2.0250  -24.0890  104.5650 C   0  0  0  0  0  0
   -1.6980  -24.8210  103.2430 C   0  0  0  0  0  0
   -2.9790  -25.3800  102.6030 C   0  0  0  0  0  0
   -0.9240  -23.9330  102.2520 C   0  0  0  0  0  0
    2.0740  -20.0080  104.4300 H   0  0  0  0  0  0
    1.0620  -22.2500  104.4410 H   0  0  0  0  0  0
    1.9950  -22.6440  108.6240 H   0  0  0  0  0  0
    3.0320  -20.4270  108.6090 H   0  0  0  0  0  0
    1.3380  -18.0040  106.7450 H   0  0  0  0  0  0
    1.4480  -24.5010  107.2790 H   0  0  0  0  0  0
    4.8930  -20.4850  105.1970 H   0  0  0  0  0  0
    5.7440  -20.5010  106.7430 H   0  0  0  0  0  0
    9.6010  -17.1630  102.8900 H   0  0  0  0  0  0
    7.9260  -16.1470  101.3590 H   0  0  0  0  0  0
    5.5450  -16.6780  101.5710 H   0  0  0  0  0  0
    4.7160  -18.2090  103.3380 H   0  0  0  0  0  0
    1.6670  -15.3290  107.7030 H   0  0  0  0  0  0
    1.2710  -13.1190  110.3920 H   0  0  0  0  0  0
    0.3460  -13.7830  109.0530 H   0  0  0  0  0  0
    1.9740  -13.1800  108.7830 H   0  0  0  0  0  0
    0.8200  -15.2480  111.6910 H   0  0  0  0  0  0
    1.3760  -16.8010  111.1020 H   0  0  0  0  0  0
    0.0020  -16.0200  110.3350 H   0  0  0  0  0  0
    3.2960  -14.3760  111.3150 H   0  0  0  0  0  0
    3.9980  -14.4430  109.6990 H   0  0  0  0  0  0
    3.7830  -15.9130  110.6320 H   0  0  0  0  0  0
    0.8390  -17.1850  104.4100 H   0  0  0  0  0  0
    3.8780  -13.8060  104.3680 H   0  0  0  0  0  0
    4.1660  -15.3310  106.5030 H   0  0  0  0  0  0
   -2.6290  -24.7270  105.2150 H   0  0  0  0  0  0
   -2.6320  -23.2110  104.3480 H   0  0  0  0  0  0
   -1.0630  -25.6740  103.4820 H   0  0  0  0  0  0
   -2.7520  -25.9600  101.7080 H   0  0  0  0  0  0
   -3.6630  -24.5820  102.3150 H   0  0  0  0  0  0
   -3.5070  -26.0390  103.2910 H   0  0  0  0  0  0
   -0.6830  -24.4790  101.3390 H   0  0  0  0  0  0
    0.0170  -23.5840  102.6760 H   0  0  0  0  0  0
   -1.5030  -23.0550  101.9690 H   0  0  0  0  0  0
  1  2  1  0  0  0
  1  6  2  0  0  0
  1  7  1  0  0  0
  2  3  2  0  0  0
  2 41  1  0  0  0
  3  4  1  0  0  0
  3 42  1  0  0  0
  4  5  2  0  0  0
  4 10  1  0  0  0
  5  6  1  0  0  0
  5 43  1  0  0  0
  6 44  1  0  0  0
  7  8  1  0  0  0
  7  9  1  0  0  0
  8 11  2  0  0  0
  8 12  1  0  0  0
  9 22  1  0  0  0
  9 23  1  0  0  0
  9 45  1  0  0  0
 10 34  1  0  0  0
 10 46  1  0  0  0
 12 13  1  0  0  0
 12 47  1  0  0  0
 12 48  1  0  0  0
 13 14  1  0  0  0
 13 17  1  0  0  0
 14 15  2  0  0  0
 15 16  1  0  0  0
 16 17  2  0  0  0
 16 18  1  0  0  0
 17 21  1  0  0  0
 18 19  2  0  0  0
 18 49  1  0  0  0
 19 20  1  0  0  0
 19 50  1  0  0  0
 20 21  2  0  0  0
 20 51  1  0  0  0
 21 52  1  0  0  0
 22 30  2  0  0  0
 22 33  1  0  0  0
 23 24  2  0  0  0
 23 25  1  0  0  0
 25 26  1  0  0  0
 25 53  1  0  0  0
 26 27  1  0  0  0
 26 28  1  0  0  0
 26 29  1  0  0  0
 27 54  1  0  0  0
 27 55  1  0  0  0
 27 56  1  0  0  0
 28 57  1  0  0  0
 28 58  1  0  0  0
 28 59  1  0  0  0
 29 60  1  0  0  0
 29 61  1  0  0  0
 29 62  1  0  0  0
 30 31  1  0  0  0
 30 63  1  0  0  0
 31 32  1  0  0  0
 32 33  2  0  0  0
 32 64  1  0  0  0
 33 65  1  0  0  0
 34 35  1  0  0  0
 34 36  2  0  0  0
 35 37  1  0  0  0
 37 38  1  0  0  0
 37 66  1  0  0  0
 37 67  1  0  0  0
 38 39  1  0  0  0
 38 40  1  0  0  0
 38 68  1  0  0  0
 39 69  1  0  0  0
 39 70  1  0  0  0
 39 71  1  0  0  0
 40 72  1  0  0  0
 40 73  1  0  0  0
 40 74  1  0  0  0
M  END
> <s_m_entry_id>
12

> <s_m_entry_name>
13_serie.12

> <s_pdb_PDB_format_version>
3.0

> <s_m_Source_Path>
/home/carles/Downloads/complexes

> <s_m_Source_File>
13_serie.sdf

> <i_m_Source_File_Index>
12

> <chiral flag>
0

> <version>
1

> <s_m_subgroup_title>
13_serie

> <s_m_subgroupid>
13_serie

> <b_m_subgroup_collapsed>
0

$$$$
