inp0
                    3D
 Structure written by MMmdl.
100104  0  0  1  0            999 V2000
   12.5930    8.4480   35.6800 N   0  0  0  0  0  0
   11.6930    9.0880   34.7370 C   0  0  2  0  0  0
   10.6480    8.1090   34.1730 C   0  0  0  0  0  0
   12.5190    9.7250   33.6330 C   0  0  0  0  0  0
   11.0400   10.1620   35.6600 C   0  0  2  0  0  0
    9.7150    9.6460   36.2220 C   0  0  0  0  0  0
   10.8030   11.4630   34.9430 C   0  0  0  0  0  0
   11.9970   10.3170   36.7720 N   0  0  0  0  0  0
   12.8170    9.3230   36.8000 C   0  0  0  0  0  0
   13.8480    9.0940   37.8320 C   0  0  0  0  0  0
   13.8950    9.9110   33.8140 C   0  0  0  0  0  0
   14.6510   10.5850   32.8470 C   0  0  0  0  0  0
   14.0230   11.0690   31.6990 C   0  0  0  0  0  0
   14.9490   12.0200   30.5330 Cl  0  0  0  0  0  0
   12.6640   10.8230   31.4760 C   0  0  0  0  0  0
   11.9130   10.1510   32.4430 C   0  0  0  0  0  0
    9.5430   11.7220   34.3940 C   0  0  0  0  0  0
    9.3140   12.9070   33.7010 C   0  0  0  0  0  0
   10.3530   13.8250   33.5590 C   0  0  0  0  0  0
   10.0880   15.3050   32.6470 Cl  0  0  0  0  0  0
   11.6080   13.5830   34.1220 C   0  0  0  0  0  0
   11.8280   12.4000   34.8190 C   0  0  0  0  0  0
   13.0660    7.0970   35.4780 C   0  0  0  0  0  0
   13.3310    6.7080   34.3340 O   0  0  0  0  0  0
   13.2410    6.2470   36.5800 N   0  0  0  0  0  0
   13.8940    4.9610   36.3600 C   0  0  0  0  0  0
   14.7730    4.6360   37.5540 C   0  0  0  0  0  0
   13.9860    4.6500   38.8110 N   0  0  0  0  0  0
   13.3380    5.9800   39.0310 C   0  0  0  0  0  0
   12.4680    6.3950   37.8190 C   0  0  0  0  0  0
   13.5640    9.4060   39.1630 C   0  0  0  0  0  0
   14.5320    9.2370   40.1560 C   0  0  0  0  0  0
   15.8000    8.7430   39.8310 C   0  0  0  0  0  0
   16.8240    8.5630   40.9220 C   0  0  0  0  0  0
   17.7970    9.7470   40.9110 C   0  0  0  0  0  0
   17.6040    7.2640   40.6970 C   0  0  0  0  0  0
   16.1090    8.4270   38.5040 C   0  0  0  0  0  0
   15.1270    8.6120   37.5190 C   0  0  0  0  0  0
   15.4220    8.3400   36.2110 O   0  0  0  0  0  0
   16.7390    7.8810   35.9490 C   0  0  0  0  0  0
   16.8820    7.5420   34.4590 C   0  0  0  0  0  0
   16.1170    8.5010   42.2790 C   0  0  0  0  0  0
   14.1050    4.2660   41.2850 C   0  0  0  0  0  0
   15.0680    3.7860   42.3820 C   0  0  0  0  0  0
   14.4700    4.2170   43.9960 S   0  0  0  0  0  0
   15.5690    3.4180   45.1430 C   0  0  0  0  0  0
   13.1380    3.6560   44.1630 O   0  0  0  0  0  0
   14.5940    5.6660   44.1580 O   0  0  0  0  0  0
   14.8370    4.2230   39.9420 C   0  0  0  0  0  0
    9.9982    8.6340   33.4728 H   0  0  0  0  0  0
   11.1547    7.2938   33.6564 H   0  0  0  0  0  0
   10.0499    7.7049   34.9898 H   0  0  0  0  0  0
    9.2713   10.4068   36.8642 H   0  0  0  0  0  0
    9.0340    9.4222   35.4009 H   0  0  0  0  0  0
    9.8938    8.7407   36.8021 H   0  0  0  0  0  0
   14.3786    9.5338   34.7030 H   0  0  0  0  0  0
   15.7117   10.7267   32.9930 H   0  0  0  0  0  0
   12.1990   11.1524   30.5586 H   0  0  0  0  0  0
   10.8638    9.9597   32.2728 H   0  0  0  0  0  0
    8.7461   11.0019   34.5076 H   0  0  0  0  0  0
    8.3396   13.1069   33.2803 H   0  0  0  0  0  0
   12.3978   14.3117   34.0142 H   0  0  0  0  0  0
   12.7928   12.2070   35.2643 H   0  0  0  0  0  0
   14.5080    5.0147   35.4610 H   0  0  0  0  0  0
   13.1376    4.1848   36.2441 H   0  0  0  0  0  0
   15.5781    5.3676   37.6218 H   0  0  0  0  0  0
   15.2213    3.6519   37.4174 H   0  0  0  0  0  0
   14.1064    6.7342   39.2012 H   0  0  0  0  0  0
   12.7169    5.9373   39.9257 H   0  0  0  0  0  0
   11.5831    5.7602   37.7729 H   0  0  0  0  0  0
   12.1594    7.4342   37.9325 H   0  0  0  0  0  0
   12.5883    9.7820   39.4332 H   0  0  0  0  0  0
   14.3035    9.4881   41.1812 H   0  0  0  0  0  0
   18.3004    9.7953   39.9454 H   0  0  0  0  0  0
   17.2461   10.6723   41.0797 H   0  0  0  0  0  0
   18.3422    7.1409   41.4895 H   0  0  0  0  0  0
   16.9151    6.4193   40.7084 H   0  0  0  0  0  0
   18.1105    7.3061   39.7328 H   0  0  0  0  0  0
   17.0888    8.0482   38.2532 H   0  0  0  0  0  0
   16.9383    6.9902   36.5448 H   0  0  0  0  0  0
   17.4543    8.6594   36.2145 H   0  0  0  0  0  0
   17.8945    7.1899   34.2615 H   0  0  0  0  0  0
   16.1684    6.7622   34.1932 H   0  0  0  0  0  0
   16.6849    8.4328   33.8626 H   0  0  0  0  0  0
   16.8566    8.3708   43.0690 H   0  0  0  0  0  0
   15.5674    9.4275   42.4456 H   0  0  0  0  0  0
   15.4230    7.6605   42.2896 H   0  0  0  0  0  0
   13.7947    5.2892   41.4967 H   0  0  0  0  0  0
   13.2389    3.6052   41.2477 H   0  0  0  0  0  0
   16.0485    4.2359   42.2263 H   0  0  0  0  0  0
   15.1841    2.7043   42.3150 H   0  0  0  0  0  0
   15.2567    3.6428   46.1628 H   0  0  0  0  0  0
   15.5400    2.3401   44.9839 H   0  0  0  0  0  0
   16.5849    3.7807   44.9863 H   0  0  0  0  0  0
   15.7207    4.8592   39.9907 H   0  0  0  0  0  0
   15.2007    3.2117   39.7600 H   0  0  0  0  0  0
   19.0132    9.5330   42.2069 S   0  0  0  0  0  0
   19.9365   10.6913   42.1696 O   0  0  0  0  0  0
   18.3703    9.5487   43.3780 H   0  0  0  0  0  0
   19.6386    8.2002   42.0408 O   0  0  0  0  0  0
  1  2  1  0  0  0
  1  9  1  0  0  0
  1 23  1  0  0  0
  2  3  1  0  0  0
  2  4  1  0  0  0
  2  5  1  0  0  0
  3 50  1  0  0  0
  3 51  1  0  0  0
  3 52  1  0  0  0
  4 11  2  0  0  0
  4 16  1  0  0  0
  5  6  1  0  0  0
  5  7  1  0  0  0
  5  8  1  0  0  0
  6 53  1  0  0  0
  6 54  1  0  0  0
  6 55  1  0  0  0
  7 17  2  0  0  0
  7 22  1  0  0  0
  8  9  2  0  0  0
  9 10  1  0  0  0
 10 31  2  0  0  0
 10 38  1  0  0  0
 11 12  1  0  0  0
 11 56  1  0  0  0
 12 13  2  0  0  0
 12 57  1  0  0  0
 13 14  1  0  0  0
 13 15  1  0  0  0
 15 16  2  0  0  0
 15 58  1  0  0  0
 16 59  1  0  0  0
 17 18  1  0  0  0
 17 60  1  0  0  0
 18 19  2  0  0  0
 18 61  1  0  0  0
 19 20  1  0  0  0
 19 21  1  0  0  0
 21 22  2  0  0  0
 21 62  1  0  0  0
 22 63  1  0  0  0
 23 24  2  0  0  0
 23 25  1  0  0  0
 25 26  1  0  0  0
 25 30  1  0  0  0
 26 27  1  0  0  0
 26 64  1  0  0  0
 26 65  1  0  0  0
 27 28  1  0  0  0
 27 66  1  0  0  0
 27 67  1  0  0  0
 28 29  1  0  0  0
 28 49  1  0  0  0
 29 30  1  0  0  0
 29 68  1  0  0  0
 29 69  1  0  0  0
 30 70  1  0  0  0
 30 71  1  0  0  0
 31 32  1  0  0  0
 31 72  1  0  0  0
 32 33  2  0  0  0
 32 73  1  0  0  0
 33 34  1  0  0  0
 33 37  1  0  0  0
 34 35  1  0  0  0
 34 36  1  0  0  0
 34 42  1  0  0  0
 35 74  1  0  0  0
 35 75  1  0  0  0
 35 97  1  0  0  0
 36 76  1  0  0  0
 36 77  1  0  0  0
 36 78  1  0  0  0
 37 38  2  0  0  0
 37 79  1  0  0  0
 38 39  1  0  0  0
 39 40  1  0  0  0
 40 41  1  0  0  0
 40 80  1  0  0  0
 40 81  1  0  0  0
 41 82  1  0  0  0
 41 83  1  0  0  0
 41 84  1  0  0  0
 42 85  1  0  0  0
 42 86  1  0  0  0
 42 87  1  0  0  0
 43 44  1  0  0  0
 43 49  1  0  0  0
 43 88  1  0  0  0
 43 89  1  0  0  0
 44 45  1  0  0  0
 44 90  1  0  0  0
 44 91  1  0  0  0
 45 46  1  0  0  0
 45 47  2  0  0  0
 45 48  2  0  0  0
 46 92  1  0  0  0
 46 93  1  0  0  0
 46 94  1  0  0  0
 49 95  1  0  0  0
 49 96  1  0  0  0
 97 98  2  0  0  0
 97 99  1  0  0  0
 97100  2  0  0  0
M  END
> <s_m_entry_id>
678

> <s_m_entry_name>
4ipf.1_ligand

> <s_pdb_PDB_TITLE>
THE 1.7A CRYSTAL STRUCTURE OF HUMANIZED XENOPUS MDM2 WITH RO5045337

> <s_pdb_PDB_ID>
4IPF

> <r_pdb_PDB_CRYST1_a>
43.083

> <r_pdb_PDB_CRYST1_b>
67.493

> <r_pdb_PDB_CRYST1_c>
66.724

> <r_pdb_PDB_CRYST1_alpha>
90

> <r_pdb_PDB_CRYST1_beta>
90

> <r_pdb_PDB_CRYST1_gamma>
90

> <s_pdb_PDB_CRYST1_Space_Group>
C 2 2 21

> <i_pdb_PDB_CRYST1_z>
8

> <s_pdb_PDB_CLASSIFICATION>
LIGASE/ANTAGONIST

> <s_pdb_PDB_DEPOSITION_DATE>
09-JAN-13

> <s_pdb_PDB_format_version>
3.30

> <r_pdb_PDB_R>
0.208

> <r_pdb_PDB_Rfree>
0.229

> <r_pdb_PDB_RESOLUTION>
1.7

> <s_pdb_PDB_EXPDTA>
X-RAY DIFFRACTION

> <r_pdb_PDB_EXPDTA_TEMPERATURE>
100

> <r_pdb_PDB_EXPDTA_PH>
6.5

> <s_pdb_PDB_REMARK_350_Biomolecule_1_Transform_1_Chains>
A

> <s_pdb_PDB_REMARK_350_Biomolecule_1_Transform_1_Matrix_1>
1.000000 0.000000 0.000000   0.000000;0.000000 1.000000 0.000000   0.000000;0.000000 0.000000 1.000000   0.000000

> <s_m_Source_Path>
/scratch

> <s_m_Source_File>
4ipf.pdb

> <i_m_Source_File_Index>
1

> <s_ppw_entry_id_backup>
668

> <b_ppw_prepared>
1

> <s_ppw_prepared_with_version>
2019-1

> <b_ppw_assigned_bond_orders>
1

> <b_ppw_added_hydrogens>
1

> <b_ppw_treated_metals>
1

> <b_ppw_created_disulfur>
1

> <b_ppw_deleted_far_waters>
1

> <s_ppw_het_states>
eJztljFv20AMhf+KoLV2KpInnZRsnboWHYsMRpqprt3BHYog/70iJX06OSiKzrUH4305Se+oe6TzUkt9X30ZP90gu6p53FWjUpShEqpFdaiM6lHDrHLToASlKEMlVIvqUBnVo/AQPAQPwUPwEDwED8FD8BA8BA/FQ/FQPBQPxUPxUDwUD8VD8TA8DA/Dw/AwPAwPw8PwMDwsPFxOZx3HLNNRBQ4lxisT4hBJKDFtsQXHhThmLbBjtfWLrzBvsQez35t5lKOse+7nPStpi6AJkYtT0gJ7Vr3ARkF1NC42x8RqYAu2c0VKKiOQQjQjlUo+I5pSoCwoMlekhDTyWSK+riKpBSpP9oVIr5DjiLAQ5shxgbbisHmUv7WItRDwyLaS8gi4FIivL0ToS+w2aOuT83woSjdEIwgtEd0g9EW0hNAI0QMlcq+FEdtwFc1R4pKrGWMbIzd30vgLeXndVfsF6s+Xw+W5+vF8Ohwvv+7jourb0+H4/vv5+FB93H84n75WT+efp8u4+FB9Gr/r6LTbWH07VtfU3cbqbazexur/MFblTtSWsbrA9Vj1v/9lrL6T2h9X6/xfa040dqKxE42dzO0mmUJGo8ZdccO01wl1i0tnzhgv5TF+FJqpDnVxXYMv//m3QaOIvU5FGEUwaxKzJjFrUr8WMZRF+BtOtMyEeYtkdcLhTRHp34tIaxGvvwGQhp96

$$$$
inp1
                    3D
 Structure written by MMmdl.
 99103  0  0  1  0            999 V2000
   12.5930    8.4480   35.6800 N   0  0  0  0  0  0
   11.6930    9.0880   34.7370 C   0  0  2  0  0  0
   10.6480    8.1090   34.1730 C   0  0  0  0  0  0
   12.5190    9.7250   33.6330 C   0  0  0  0  0  0
   11.0400   10.1620   35.6600 C   0  0  2  0  0  0
    9.7150    9.6460   36.2220 C   0  0  0  0  0  0
   10.8030   11.4630   34.9430 C   0  0  0  0  0  0
   11.9970   10.3170   36.7720 N   0  0  0  0  0  0
   12.8170    9.3230   36.8000 C   0  0  0  0  0  0
   13.8480    9.0940   37.8320 C   0  0  0  0  0  0
   13.8950    9.9110   33.8140 C   0  0  0  0  0  0
   14.6510   10.5850   32.8470 C   0  0  0  0  0  0
   14.0230   11.0690   31.6990 C   0  0  0  0  0  0
   14.9490   12.0200   30.5330 Cl  0  0  0  0  0  0
   12.6640   10.8230   31.4760 C   0  0  0  0  0  0
   11.9130   10.1510   32.4430 C   0  0  0  0  0  0
    9.5430   11.7220   34.3940 C   0  0  0  0  0  0
    9.3140   12.9070   33.7010 C   0  0  0  0  0  0
   10.3530   13.8250   33.5590 C   0  0  0  0  0  0
   10.0880   15.3050   32.6470 Cl  0  0  0  0  0  0
   11.6080   13.5830   34.1220 C   0  0  0  0  0  0
   11.8280   12.4000   34.8190 C   0  0  0  0  0  0
   13.0660    7.0970   35.4780 C   0  0  0  0  0  0
   13.3310    6.7080   34.3340 O   0  0  0  0  0  0
   13.2410    6.2470   36.5800 N   0  0  0  0  0  0
   13.8940    4.9610   36.3600 C   0  0  0  0  0  0
   14.7730    4.6360   37.5540 C   0  0  0  0  0  0
   13.9860    4.6500   38.8110 N   0  0  0  0  0  0
   13.3380    5.9800   39.0310 C   0  0  0  0  0  0
   12.4680    6.3950   37.8190 C   0  0  0  0  0  0
   13.5640    9.4060   39.1630 C   0  0  0  0  0  0
   14.5320    9.2370   40.1560 C   0  0  0  0  0  0
   15.8000    8.7430   39.8310 C   0  0  0  0  0  0
   16.8240    8.5630   40.9220 C   0  0  0  0  0  0
   17.7970    9.7470   40.9110 C   0  0  0  0  0  0
   17.6040    7.2640   40.6970 C   0  0  0  0  0  0
   16.1090    8.4270   38.5040 C   0  0  0  0  0  0
   15.1270    8.6120   37.5190 C   0  0  0  0  0  0
   15.4220    8.3400   36.2110 O   0  0  0  0  0  0
   16.7390    7.8810   35.9490 C   0  0  0  0  0  0
   16.8820    7.5420   34.4590 C   0  0  0  0  0  0
   16.1170    8.5010   42.2790 C   0  0  0  0  0  0
   14.1050    4.2660   41.2850 C   0  0  0  0  0  0
   15.0680    3.7860   42.3820 C   0  0  0  0  0  0
   14.4700    4.2170   43.9960 S   0  0  0  0  0  0
   15.5690    3.4180   45.1430 C   0  0  0  0  0  0
   13.1380    3.6560   44.1630 O   0  0  0  0  0  0
   14.5940    5.6660   44.1580 O   0  0  0  0  0  0
   14.8370    4.2230   39.9420 C   0  0  0  0  0  0
    9.9982    8.6340   33.4728 H   0  0  0  0  0  0
   11.1547    7.2938   33.6564 H   0  0  0  0  0  0
    9.2713   10.4068   36.8642 H   0  0  0  0  0  0
    9.0340    9.4222   35.4009 H   0  0  0  0  0  0
    9.8938    8.7407   36.8021 H   0  0  0  0  0  0
   14.3786    9.5338   34.7030 H   0  0  0  0  0  0
   15.7117   10.7267   32.9930 H   0  0  0  0  0  0
   12.1990   11.1524   30.5586 H   0  0  0  0  0  0
   10.8638    9.9597   32.2728 H   0  0  0  0  0  0
    8.7461   11.0019   34.5076 H   0  0  0  0  0  0
    8.3396   13.1069   33.2803 H   0  0  0  0  0  0
   12.3978   14.3117   34.0142 H   0  0  0  0  0  0
   12.7928   12.2070   35.2643 H   0  0  0  0  0  0
   14.5080    5.0147   35.4610 H   0  0  0  0  0  0
   13.1376    4.1848   36.2441 H   0  0  0  0  0  0
   15.5781    5.3676   37.6218 H   0  0  0  0  0  0
   15.2213    3.6519   37.4174 H   0  0  0  0  0  0
   14.1064    6.7342   39.2012 H   0  0  0  0  0  0
   12.7169    5.9373   39.9257 H   0  0  0  0  0  0
   11.5831    5.7602   37.7729 H   0  0  0  0  0  0
   12.1594    7.4342   37.9325 H   0  0  0  0  0  0
   12.5883    9.7820   39.4332 H   0  0  0  0  0  0
   14.3035    9.4881   41.1812 H   0  0  0  0  0  0
   18.5376    9.6167   41.7001 H   0  0  0  0  0  0
   18.3004    9.7953   39.9454 H   0  0  0  0  0  0
   17.2461   10.6723   41.0797 H   0  0  0  0  0  0
   18.3422    7.1409   41.4895 H   0  0  0  0  0  0
   16.9151    6.4193   40.7084 H   0  0  0  0  0  0
   18.1105    7.3061   39.7328 H   0  0  0  0  0  0
   17.0888    8.0482   38.2532 H   0  0  0  0  0  0
   16.9383    6.9902   36.5448 H   0  0  0  0  0  0
   17.4543    8.6594   36.2145 H   0  0  0  0  0  0
   17.8945    7.1899   34.2615 H   0  0  0  0  0  0
   16.1684    6.7622   34.1932 H   0  0  0  0  0  0
   16.6849    8.4328   33.8626 H   0  0  0  0  0  0
   16.8566    8.3708   43.0690 H   0  0  0  0  0  0
   15.5674    9.4275   42.4456 H   0  0  0  0  0  0
   15.4230    7.6605   42.2896 H   0  0  0  0  0  0
   13.7947    5.2892   41.4967 H   0  0  0  0  0  0
   13.2389    3.6052   41.2477 H   0  0  0  0  0  0
   16.0485    4.2359   42.2263 H   0  0  0  0  0  0
   15.1841    2.7043   42.3150 H   0  0  0  0  0  0
   15.2567    3.6428   46.1628 H   0  0  0  0  0  0
   15.5400    2.3401   44.9839 H   0  0  0  0  0  0
   16.5849    3.7807   44.9863 H   0  0  0  0  0  0
   15.7207    4.8592   39.9907 H   0  0  0  0  0  0
   15.2007    3.2117   39.7600 H   0  0  0  0  0  0
    9.8129    7.5447   35.3135 C   0  0  0  0  0  0
    8.9293    6.7517   35.0905 O   0  0  0  0  0  0
   10.0267    7.8720   36.3555 H   0  0  0  0  0  0
  1  2  1  0  0  0
  1  9  1  0  0  0
  1 23  1  0  0  0
  2  3  1  0  0  0
  2  4  1  0  0  0
  2  5  1  0  0  0
  3 50  1  0  0  0
  3 51  1  0  0  0
  3 97  1  0  0  0
  4 11  2  0  0  0
  4 16  1  0  0  0
  5  6  1  0  0  0
  5  7  1  0  0  0
  5  8  1  0  0  0
  6 52  1  0  0  0
  6 53  1  0  0  0
  6 54  1  0  0  0
  7 17  2  0  0  0
  7 22  1  0  0  0
  8  9  2  0  0  0
  9 10  1  0  0  0
 10 31  2  0  0  0
 10 38  1  0  0  0
 11 12  1  0  0  0
 11 55  1  0  0  0
 12 13  2  0  0  0
 12 56  1  0  0  0
 13 14  1  0  0  0
 13 15  1  0  0  0
 15 16  2  0  0  0
 15 57  1  0  0  0
 16 58  1  0  0  0
 17 18  1  0  0  0
 17 59  1  0  0  0
 18 19  2  0  0  0
 18 60  1  0  0  0
 19 20  1  0  0  0
 19 21  1  0  0  0
 21 22  2  0  0  0
 21 61  1  0  0  0
 22 62  1  0  0  0
 23 24  2  0  0  0
 23 25  1  0  0  0
 25 26  1  0  0  0
 25 30  1  0  0  0
 26 27  1  0  0  0
 26 63  1  0  0  0
 26 64  1  0  0  0
 27 28  1  0  0  0
 27 65  1  0  0  0
 27 66  1  0  0  0
 28 29  1  0  0  0
 28 49  1  0  0  0
 29 30  1  0  0  0
 29 67  1  0  0  0
 29 68  1  0  0  0
 30 69  1  0  0  0
 30 70  1  0  0  0
 31 32  1  0  0  0
 31 71  1  0  0  0
 32 33  2  0  0  0
 32 72  1  0  0  0
 33 34  1  0  0  0
 33 37  1  0  0  0
 34 35  1  0  0  0
 34 36  1  0  0  0
 34 42  1  0  0  0
 35 73  1  0  0  0
 35 74  1  0  0  0
 35 75  1  0  0  0
 36 76  1  0  0  0
 36 77  1  0  0  0
 36 78  1  0  0  0
 37 38  2  0  0  0
 37 79  1  0  0  0
 38 39  1  0  0  0
 39 40  1  0  0  0
 40 41  1  0  0  0
 40 80  1  0  0  0
 40 81  1  0  0  0
 41 82  1  0  0  0
 41 83  1  0  0  0
 41 84  1  0  0  0
 42 85  1  0  0  0
 42 86  1  0  0  0
 42 87  1  0  0  0
 43 44  1  0  0  0
 43 49  1  0  0  0
 43 88  1  0  0  0
 43 89  1  0  0  0
 44 45  1  0  0  0
 44 90  1  0  0  0
 44 91  1  0  0  0
 45 46  1  0  0  0
 45 47  2  0  0  0
 45 48  2  0  0  0
 46 92  1  0  0  0
 46 93  1  0  0  0
 46 94  1  0  0  0
 49 95  1  0  0  0
 49 96  1  0  0  0
 97 98  2  0  0  0
 97 99  1  0  0  0
M  END
> <s_m_entry_id>
676

> <s_m_entry_name>
4ipf.1_ligand

> <s_pdb_PDB_TITLE>
THE 1.7A CRYSTAL STRUCTURE OF HUMANIZED XENOPUS MDM2 WITH RO5045337

> <s_pdb_PDB_ID>
4IPF

> <r_pdb_PDB_CRYST1_a>
43.083

> <r_pdb_PDB_CRYST1_b>
67.493

> <r_pdb_PDB_CRYST1_c>
66.724

> <r_pdb_PDB_CRYST1_alpha>
90

> <r_pdb_PDB_CRYST1_beta>
90

> <r_pdb_PDB_CRYST1_gamma>
90

> <s_pdb_PDB_CRYST1_Space_Group>
C 2 2 21

> <i_pdb_PDB_CRYST1_z>
8

> <s_pdb_PDB_CLASSIFICATION>
LIGASE/ANTAGONIST

> <s_pdb_PDB_DEPOSITION_DATE>
09-JAN-13

> <s_pdb_PDB_format_version>
3.30

> <r_pdb_PDB_R>
0.208

> <r_pdb_PDB_Rfree>
0.229

> <r_pdb_PDB_RESOLUTION>
1.7

> <s_pdb_PDB_EXPDTA>
X-RAY DIFFRACTION

> <r_pdb_PDB_EXPDTA_TEMPERATURE>
100

> <r_pdb_PDB_EXPDTA_PH>
6.5

> <s_pdb_PDB_REMARK_350_Biomolecule_1_Transform_1_Chains>
A

> <s_pdb_PDB_REMARK_350_Biomolecule_1_Transform_1_Matrix_1>
1.000000 0.000000 0.000000   0.000000;0.000000 1.000000 0.000000   0.000000;0.000000 0.000000 1.000000   0.000000

> <s_m_Source_Path>
/scratch

> <s_m_Source_File>
4ipf.pdb

> <i_m_Source_File_Index>
1

> <s_ppw_entry_id_backup>
668

> <b_ppw_prepared>
1

> <s_ppw_prepared_with_version>
2019-1

> <b_ppw_assigned_bond_orders>
1

> <b_ppw_added_hydrogens>
1

> <b_ppw_treated_metals>
1

> <b_ppw_created_disulfur>
1

> <b_ppw_deleted_far_waters>
1

> <s_ppw_het_states>
eJztljFv20AMhf+KoLV2KpInnZRsnboWHYsMRpqprt3BHYog/70iJX06OSiKzrUH4305Se+oe6TzUkt9X30ZP90gu6p53FWjUpShEqpFdaiM6lHDrHLToASlKEMlVIvqUBnVo/AQPAQPwUPwEDwED8FD8BA8BA/FQ/FQPBQPxUPxUDwUD8VD8TA8DA/Dw/AwPAwPw8PwMDwsPFxOZx3HLNNRBQ4lxisT4hBJKDFtsQXHhThmLbBjtfWLrzBvsQez35t5lKOse+7nPStpi6AJkYtT0gJ7Vr3ARkF1NC42x8RqYAu2c0VKKiOQQjQjlUo+I5pSoCwoMlekhDTyWSK+riKpBSpP9oVIr5DjiLAQ5shxgbbisHmUv7WItRDwyLaS8gi4FIivL0ToS+w2aOuT83woSjdEIwgtEd0g9EW0hNAI0QMlcq+FEdtwFc1R4pKrGWMbIzd30vgLeXndVfsF6s+Xw+W5+vF8Ohwvv+7jourb0+H4/vv5+FB93H84n75WT+efp8u4+FB9Gr/r6LTbWH07VtfU3cbqbazexur/MFblTtSWsbrA9Vj1v/9lrL6T2h9X6/xfa040dqKxE42dzO0mmUJGo8ZdccO01wl1i0tnzhgv5TF+FJqpDnVxXYMv//m3QaOIvU5FGEUwaxKzJjFrUr8WMZRF+BtOtMyEeYtkdcLhTRHp34tIaxGvvwGQhp96

$$$$
inp2
                    3D
 Structure written by MMmdl.
 99103  0  0  1  0            999 V2000
   12.5930    8.4480   35.6800 N   0  0  0  0  0  0
   11.6930    9.0880   34.7370 C   0  0  2  0  0  0
   10.6480    8.1090   34.1730 C   0  0  0  0  0  0
   12.5190    9.7250   33.6330 C   0  0  0  0  0  0
   11.0400   10.1620   35.6600 C   0  0  2  0  0  0
    9.7150    9.6460   36.2220 C   0  0  0  0  0  0
   10.8030   11.4630   34.9430 C   0  0  0  0  0  0
   11.9970   10.3170   36.7720 N   0  0  0  0  0  0
   12.8170    9.3230   36.8000 C   0  0  0  0  0  0
   13.8480    9.0940   37.8320 C   0  0  0  0  0  0
   13.8950    9.9110   33.8140 C   0  0  0  0  0  0
   14.6510   10.5850   32.8470 C   0  0  0  0  0  0
   14.0230   11.0690   31.6990 C   0  0  0  0  0  0
   14.9490   12.0200   30.5330 Cl  0  0  0  0  0  0
   12.6640   10.8230   31.4760 C   0  0  0  0  0  0
   11.9130   10.1510   32.4430 C   0  0  0  0  0  0
    9.5430   11.7220   34.3940 C   0  0  0  0  0  0
    9.3140   12.9070   33.7010 C   0  0  0  0  0  0
   10.3530   13.8250   33.5590 C   0  0  0  0  0  0
   10.0880   15.3050   32.6470 Cl  0  0  0  0  0  0
   11.6080   13.5830   34.1220 C   0  0  0  0  0  0
   11.8280   12.4000   34.8190 C   0  0  0  0  0  0
   13.0660    7.0970   35.4780 C   0  0  0  0  0  0
   13.3310    6.7080   34.3340 O   0  0  0  0  0  0
   13.2410    6.2470   36.5800 N   0  0  0  0  0  0
   13.8940    4.9610   36.3600 C   0  0  0  0  0  0
   14.7730    4.6360   37.5540 C   0  0  0  0  0  0
   13.9860    4.6500   38.8110 N   0  0  0  0  0  0
   13.3380    5.9800   39.0310 C   0  0  0  0  0  0
   12.4680    6.3950   37.8190 C   0  0  0  0  0  0
   13.5640    9.4060   39.1630 C   0  0  0  0  0  0
   14.5320    9.2370   40.1560 C   0  0  0  0  0  0
   15.8000    8.7430   39.8310 C   0  0  0  0  0  0
   16.8240    8.5630   40.9220 C   0  0  0  0  0  0
   17.7970    9.7470   40.9110 C   0  0  0  0  0  0
   17.6040    7.2640   40.6970 C   0  0  0  0  0  0
   16.1090    8.4270   38.5040 C   0  0  0  0  0  0
   15.1270    8.6120   37.5190 C   0  0  0  0  0  0
   15.4220    8.3400   36.2110 O   0  0  0  0  0  0
   16.7390    7.8810   35.9490 C   0  0  0  0  0  0
   16.8820    7.5420   34.4590 C   0  0  0  0  0  0
   16.1170    8.5010   42.2790 C   0  0  0  0  0  0
   14.1050    4.2660   41.2850 C   0  0  0  0  0  0
   15.0680    3.7860   42.3820 C   0  0  0  0  0  0
   14.4700    4.2170   43.9960 S   0  0  0  0  0  0
   15.5690    3.4180   45.1430 C   0  0  0  0  0  0
   13.1380    3.6560   44.1630 O   0  0  0  0  0  0
   14.5940    5.6660   44.1580 O   0  0  0  0  0  0
   14.8370    4.2230   39.9420 C   0  0  0  0  0  0
    9.9982    8.6340   33.4728 H   0  0  0  0  0  0
   11.1547    7.2938   33.6564 H   0  0  0  0  0  0
   10.0499    7.7049   34.9898 H   0  0  0  0  0  0
    9.2713   10.4068   36.8642 H   0  0  0  0  0  0
    9.0340    9.4222   35.4009 H   0  0  0  0  0  0
    9.8938    8.7407   36.8021 H   0  0  0  0  0  0
   14.3786    9.5338   34.7030 H   0  0  0  0  0  0
   15.7117   10.7267   32.9930 H   0  0  0  0  0  0
   12.1990   11.1524   30.5586 H   0  0  0  0  0  0
   10.8638    9.9597   32.2728 H   0  0  0  0  0  0
    8.7461   11.0019   34.5076 H   0  0  0  0  0  0
    8.3396   13.1069   33.2803 H   0  0  0  0  0  0
   12.3978   14.3117   34.0142 H   0  0  0  0  0  0
   14.5080    5.0147   35.4610 H   0  0  0  0  0  0
   13.1376    4.1848   36.2441 H   0  0  0  0  0  0
   15.5781    5.3676   37.6218 H   0  0  0  0  0  0
   15.2213    3.6519   37.4174 H   0  0  0  0  0  0
   14.1064    6.7342   39.2012 H   0  0  0  0  0  0
   12.7169    5.9373   39.9257 H   0  0  0  0  0  0
   11.5831    5.7602   37.7729 H   0  0  0  0  0  0
   12.1594    7.4342   37.9325 H   0  0  0  0  0  0
   12.5883    9.7820   39.4332 H   0  0  0  0  0  0
   14.3035    9.4881   41.1812 H   0  0  0  0  0  0
   18.5376    9.6167   41.7001 H   0  0  0  0  0  0
   18.3004    9.7953   39.9454 H   0  0  0  0  0  0
   17.2461   10.6723   41.0797 H   0  0  0  0  0  0
   18.3422    7.1409   41.4895 H   0  0  0  0  0  0
   16.9151    6.4193   40.7084 H   0  0  0  0  0  0
   18.1105    7.3061   39.7328 H   0  0  0  0  0  0
   17.0888    8.0482   38.2532 H   0  0  0  0  0  0
   16.9383    6.9902   36.5448 H   0  0  0  0  0  0
   17.4543    8.6594   36.2145 H   0  0  0  0  0  0
   17.8945    7.1899   34.2615 H   0  0  0  0  0  0
   16.1684    6.7622   34.1932 H   0  0  0  0  0  0
   16.6849    8.4328   33.8626 H   0  0  0  0  0  0
   16.8566    8.3708   43.0690 H   0  0  0  0  0  0
   15.5674    9.4275   42.4456 H   0  0  0  0  0  0
   15.4230    7.6605   42.2896 H   0  0  0  0  0  0
   13.7947    5.2892   41.4967 H   0  0  0  0  0  0
   13.2389    3.6052   41.2477 H   0  0  0  0  0  0
   16.0485    4.2359   42.2263 H   0  0  0  0  0  0
   15.1841    2.7043   42.3150 H   0  0  0  0  0  0
   15.2567    3.6428   46.1628 H   0  0  0  0  0  0
   15.5400    2.3401   44.9839 H   0  0  0  0  0  0
   16.5849    3.7807   44.9863 H   0  0  0  0  0  0
   15.7207    4.8592   39.9907 H   0  0  0  0  0  0
   15.2007    3.2117   39.7600 H   0  0  0  0  0  0
   13.8033   12.8322   35.2981 H   0  0  0  0  0  0
   13.0608   12.1534   35.3880 N   0  0  0  0  0  0
   13.2206   11.2942   35.8942 H   0  0  0  0  0  0
  1  2  1  0  0  0
  1  9  1  0  0  0
  1 23  1  0  0  0
  2  3  1  0  0  0
  2  4  1  0  0  0
  2  5  1  0  0  0
  3 50  1  0  0  0
  3 51  1  0  0  0
  3 52  1  0  0  0
  4 11  2  0  0  0
  4 16  1  0  0  0
  5  6  1  0  0  0
  5  7  1  0  0  0
  5  8  1  0  0  0
  6 53  1  0  0  0
  6 54  1  0  0  0
  6 55  1  0  0  0
  7 17  2  0  0  0
  7 22  1  0  0  0
  8  9  2  0  0  0
  9 10  1  0  0  0
 10 31  2  0  0  0
 10 38  1  0  0  0
 11 12  1  0  0  0
 11 56  1  0  0  0
 12 13  2  0  0  0
 12 57  1  0  0  0
 13 14  1  0  0  0
 13 15  1  0  0  0
 15 16  2  0  0  0
 15 58  1  0  0  0
 16 59  1  0  0  0
 17 18  1  0  0  0
 17 60  1  0  0  0
 18 19  2  0  0  0
 18 61  1  0  0  0
 19 20  1  0  0  0
 19 21  1  0  0  0
 21 22  2  0  0  0
 21 62  1  0  0  0
 22 98  1  0  0  0
 23 24  2  0  0  0
 23 25  1  0  0  0
 25 26  1  0  0  0
 25 30  1  0  0  0
 26 27  1  0  0  0
 26 63  1  0  0  0
 26 64  1  0  0  0
 27 28  1  0  0  0
 27 65  1  0  0  0
 27 66  1  0  0  0
 28 29  1  0  0  0
 28 49  1  0  0  0
 29 30  1  0  0  0
 29 67  1  0  0  0
 29 68  1  0  0  0
 30 69  1  0  0  0
 30 70  1  0  0  0
 31 32  1  0  0  0
 31 71  1  0  0  0
 32 33  2  0  0  0
 32 72  1  0  0  0
 33 34  1  0  0  0
 33 37  1  0  0  0
 34 35  1  0  0  0
 34 36  1  0  0  0
 34 42  1  0  0  0
 35 73  1  0  0  0
 35 74  1  0  0  0
 35 75  1  0  0  0
 36 76  1  0  0  0
 36 77  1  0  0  0
 36 78  1  0  0  0
 37 38  2  0  0  0
 37 79  1  0  0  0
 38 39  1  0  0  0
 39 40  1  0  0  0
 40 41  1  0  0  0
 40 80  1  0  0  0
 40 81  1  0  0  0
 41 82  1  0  0  0
 41 83  1  0  0  0
 41 84  1  0  0  0
 42 85  1  0  0  0
 42 86  1  0  0  0
 42 87  1  0  0  0
 43 44  1  0  0  0
 43 49  1  0  0  0
 43 88  1  0  0  0
 43 89  1  0  0  0
 44 45  1  0  0  0
 44 90  1  0  0  0
 44 91  1  0  0  0
 45 46  1  0  0  0
 45 47  2  0  0  0
 45 48  2  0  0  0
 46 92  1  0  0  0
 46 93  1  0  0  0
 46 94  1  0  0  0
 49 95  1  0  0  0
 49 96  1  0  0  0
 97 98  1  0  0  0
 98 99  1  0  0  0
M  END
> <s_m_entry_id>
674

> <s_m_entry_name>
4ipf.1_ligand

> <s_pdb_PDB_TITLE>
THE 1.7A CRYSTAL STRUCTURE OF HUMANIZED XENOPUS MDM2 WITH RO5045337

> <s_pdb_PDB_ID>
4IPF

> <r_pdb_PDB_CRYST1_a>
43.083

> <r_pdb_PDB_CRYST1_b>
67.493

> <r_pdb_PDB_CRYST1_c>
66.724

> <r_pdb_PDB_CRYST1_alpha>
90

> <r_pdb_PDB_CRYST1_beta>
90

> <r_pdb_PDB_CRYST1_gamma>
90

> <s_pdb_PDB_CRYST1_Space_Group>
C 2 2 21

> <i_pdb_PDB_CRYST1_z>
8

> <s_pdb_PDB_CLASSIFICATION>
LIGASE/ANTAGONIST

> <s_pdb_PDB_DEPOSITION_DATE>
09-JAN-13

> <s_pdb_PDB_format_version>
3.30

> <r_pdb_PDB_R>
0.208

> <r_pdb_PDB_Rfree>
0.229

> <r_pdb_PDB_RESOLUTION>
1.7

> <s_pdb_PDB_EXPDTA>
X-RAY DIFFRACTION

> <r_pdb_PDB_EXPDTA_TEMPERATURE>
100

> <r_pdb_PDB_EXPDTA_PH>
6.5

> <s_pdb_PDB_REMARK_350_Biomolecule_1_Transform_1_Chains>
A

> <s_pdb_PDB_REMARK_350_Biomolecule_1_Transform_1_Matrix_1>
1.000000 0.000000 0.000000   0.000000;0.000000 1.000000 0.000000   0.000000;0.000000 0.000000 1.000000   0.000000

> <s_m_Source_Path>
/scratch

> <s_m_Source_File>
4ipf.pdb

> <i_m_Source_File_Index>
1

> <s_ppw_entry_id_backup>
668

> <b_ppw_prepared>
1

> <s_ppw_prepared_with_version>
2019-1

> <b_ppw_assigned_bond_orders>
1

> <b_ppw_added_hydrogens>
1

> <b_ppw_treated_metals>
1

> <b_ppw_created_disulfur>
1

> <b_ppw_deleted_far_waters>
1

> <s_ppw_het_states>
eJztljFv20AMhf+KoLV2KpInnZRsnboWHYsMRpqprt3BHYog/70iJX06OSiKzrUH4305Se+oe6TzUkt9X30ZP90gu6p53FWjUpShEqpFdaiM6lHDrHLToASlKEMlVIvqUBnVo/AQPAQPwUPwEDwED8FD8BA8BA/FQ/FQPBQPxUPxUDwUD8VD8TA8DA/Dw/AwPAwPw8PwMDwsPFxOZx3HLNNRBQ4lxisT4hBJKDFtsQXHhThmLbBjtfWLrzBvsQez35t5lKOse+7nPStpi6AJkYtT0gJ7Vr3ARkF1NC42x8RqYAu2c0VKKiOQQjQjlUo+I5pSoCwoMlekhDTyWSK+riKpBSpP9oVIr5DjiLAQ5shxgbbisHmUv7WItRDwyLaS8gi4FIivL0ToS+w2aOuT83woSjdEIwgtEd0g9EW0hNAI0QMlcq+FEdtwFc1R4pKrGWMbIzd30vgLeXndVfsF6s+Xw+W5+vF8Ohwvv+7jourb0+H4/vv5+FB93H84n75WT+efp8u4+FB9Gr/r6LTbWH07VtfU3cbqbazexur/MFblTtSWsbrA9Vj1v/9lrL6T2h9X6/xfa040dqKxE42dzO0mmUJGo8ZdccO01wl1i0tnzhgv5TF+FJqpDnVxXYMv//m3QaOIvU5FGEUwaxKzJjFrUr8WMZRF+BtOtMyEeYtkdcLhTRHp34tIaxGvvwGQhp96

$$$$
inp3
                    3D
 Structure written by MMmdl.
 98102  0  0  1  0            999 V2000
   12.5930    8.4480   35.6800 N   0  0  0  0  0  0
   11.6930    9.0880   34.7370 C   0  0  2  0  0  0
   10.6480    8.1090   34.1730 C   0  0  0  0  0  0
   12.5190    9.7250   33.6330 C   0  0  0  0  0  0
   11.0400   10.1620   35.6600 C   0  0  2  0  0  0
    9.7150    9.6460   36.2220 C   0  0  0  0  0  0
   10.8030   11.4630   34.9430 C   0  0  0  0  0  0
   11.9970   10.3170   36.7720 N   0  0  0  0  0  0
   12.8170    9.3230   36.8000 C   0  0  0  0  0  0
   13.8480    9.0940   37.8320 C   0  0  0  0  0  0
   13.8950    9.9110   33.8140 C   0  0  0  0  0  0
   14.6510   10.5850   32.8470 C   0  0  0  0  0  0
   14.0230   11.0690   31.6990 C   0  0  0  0  0  0
   14.9490   12.0200   30.5330 Cl  0  0  0  0  0  0
   12.6640   10.8230   31.4760 C   0  0  0  0  0  0
   11.9130   10.1510   32.4430 C   0  0  0  0  0  0
    9.5430   11.7220   34.3940 C   0  0  0  0  0  0
    9.3140   12.9070   33.7010 C   0  0  0  0  0  0
   10.3530   13.8250   33.5590 C   0  0  0  0  0  0
   10.0880   15.3050   32.6470 Cl  0  0  0  0  0  0
   11.6080   13.5830   34.1220 C   0  0  0  0  0  0
   11.8280   12.4000   34.8190 C   0  0  0  0  0  0
   13.0660    7.0970   35.4780 C   0  0  0  0  0  0
   13.3310    6.7080   34.3340 O   0  0  0  0  0  0
   13.2410    6.2470   36.5800 N   0  0  0  0  0  0
   13.8940    4.9610   36.3600 C   0  0  0  0  0  0
   14.7730    4.6360   37.5540 C   0  0  0  0  0  0
   13.9860    4.6500   38.8110 N   0  0  0  0  0  0
   13.3380    5.9800   39.0310 C   0  0  0  0  0  0
   12.4680    6.3950   37.8190 C   0  0  0  0  0  0
   13.5640    9.4060   39.1630 C   0  0  0  0  0  0
   14.5320    9.2370   40.1560 C   0  0  0  0  0  0
   15.8000    8.7430   39.8310 C   0  0  0  0  0  0
   16.8240    8.5630   40.9220 C   0  0  0  0  0  0
   17.7970    9.7470   40.9110 C   0  0  0  0  0  0
   17.6040    7.2640   40.6970 C   0  0  0  0  0  0
   16.1090    8.4270   38.5040 C   0  0  0  0  0  0
   15.1270    8.6120   37.5190 C   0  0  0  0  0  0
   15.4220    8.3400   36.2110 O   0  0  0  0  0  0
   16.7390    7.8810   35.9490 C   0  0  0  0  0  0
   16.8820    7.5420   34.4590 C   0  0  0  0  0  0
   16.1170    8.5010   42.2790 C   0  0  0  0  0  0
   14.1050    4.2660   41.2850 C   0  0  0  0  0  0
   15.0680    3.7860   42.3820 C   0  0  0  0  0  0
   14.4700    4.2170   43.9960 S   0  0  0  0  0  0
   15.5690    3.4180   45.1430 C   0  0  0  0  0  0
   13.1380    3.6560   44.1630 O   0  0  0  0  0  0
   14.5940    5.6660   44.1580 O   0  0  0  0  0  0
   14.8370    4.2230   39.9420 C   0  0  0  0  0  0
    9.9982    8.6340   33.4728 H   0  0  0  0  0  0
   11.1547    7.2938   33.6564 H   0  0  0  0  0  0
   10.0499    7.7049   34.9898 H   0  0  0  0  0  0
    9.2713   10.4068   36.8642 H   0  0  0  0  0  0
    9.0340    9.4222   35.4009 H   0  0  0  0  0  0
    9.8938    8.7407   36.8021 H   0  0  0  0  0  0
   14.3786    9.5338   34.7030 H   0  0  0  0  0  0
   15.7117   10.7267   32.9930 H   0  0  0  0  0  0
   12.1990   11.1524   30.5586 H   0  0  0  0  0  0
   10.8638    9.9597   32.2728 H   0  0  0  0  0  0
    8.7461   11.0019   34.5076 H   0  0  0  0  0  0
    8.3396   13.1069   33.2803 H   0  0  0  0  0  0
   12.7928   12.2070   35.2643 H   0  0  0  0  0  0
   14.5080    5.0147   35.4610 H   0  0  0  0  0  0
   13.1376    4.1848   36.2441 H   0  0  0  0  0  0
   15.5781    5.3676   37.6218 H   0  0  0  0  0  0
   15.2213    3.6519   37.4174 H   0  0  0  0  0  0
   14.1064    6.7342   39.2012 H   0  0  0  0  0  0
   12.7169    5.9373   39.9257 H   0  0  0  0  0  0
   11.5831    5.7602   37.7729 H   0  0  0  0  0  0
   12.1594    7.4342   37.9325 H   0  0  0  0  0  0
   12.5883    9.7820   39.4332 H   0  0  0  0  0  0
   14.3035    9.4881   41.1812 H   0  0  0  0  0  0
   18.5376    9.6167   41.7001 H   0  0  0  0  0  0
   18.3004    9.7953   39.9454 H   0  0  0  0  0  0
   17.2461   10.6723   41.0797 H   0  0  0  0  0  0
   18.3422    7.1409   41.4895 H   0  0  0  0  0  0
   16.9151    6.4193   40.7084 H   0  0  0  0  0  0
   18.1105    7.3061   39.7328 H   0  0  0  0  0  0
   17.0888    8.0482   38.2532 H   0  0  0  0  0  0
   16.9383    6.9902   36.5448 H   0  0  0  0  0  0
   17.4543    8.6594   36.2145 H   0  0  0  0  0  0
   17.8945    7.1899   34.2615 H   0  0  0  0  0  0
   16.1684    6.7622   34.1932 H   0  0  0  0  0  0
   16.6849    8.4328   33.8626 H   0  0  0  0  0  0
   16.8566    8.3708   43.0690 H   0  0  0  0  0  0
   15.5674    9.4275   42.4456 H   0  0  0  0  0  0
   15.4230    7.6605   42.2896 H   0  0  0  0  0  0
   13.7947    5.2892   41.4967 H   0  0  0  0  0  0
   13.2389    3.6052   41.2477 H   0  0  0  0  0  0
   16.0485    4.2359   42.2263 H   0  0  0  0  0  0
   15.1841    2.7043   42.3150 H   0  0  0  0  0  0
   15.2567    3.6428   46.1628 H   0  0  0  0  0  0
   15.5400    2.3401   44.9839 H   0  0  0  0  0  0
   16.5849    3.7807   44.9863 H   0  0  0  0  0  0
   15.7207    4.8592   39.9907 H   0  0  0  0  0  0
   15.2007    3.2117   39.7600 H   0  0  0  0  0  0
   12.6055   14.5033   33.9858 O   0  0  0  0  0  0
   13.3660   14.1406   34.4403 H   0  0  0  0  0  0
  1  2  1  0  0  0
  1  9  1  0  0  0
  1 23  1  0  0  0
  2  3  1  0  0  0
  2  4  1  0  0  0
  2  5  1  0  0  0
  3 50  1  0  0  0
  3 51  1  0  0  0
  3 52  1  0  0  0
  4 11  2  0  0  0
  4 16  1  0  0  0
  5  6  1  0  0  0
  5  7  1  0  0  0
  5  8  1  0  0  0
  6 53  1  0  0  0
  6 54  1  0  0  0
  6 55  1  0  0  0
  7 17  2  0  0  0
  7 22  1  0  0  0
  8  9  2  0  0  0
  9 10  1  0  0  0
 10 31  2  0  0  0
 10 38  1  0  0  0
 11 12  1  0  0  0
 11 56  1  0  0  0
 12 13  2  0  0  0
 12 57  1  0  0  0
 13 14  1  0  0  0
 13 15  1  0  0  0
 15 16  2  0  0  0
 15 58  1  0  0  0
 16 59  1  0  0  0
 17 18  1  0  0  0
 17 60  1  0  0  0
 18 19  2  0  0  0
 18 61  1  0  0  0
 19 20  1  0  0  0
 19 21  1  0  0  0
 21 22  2  0  0  0
 21 97  1  0  0  0
 22 62  1  0  0  0
 23 24  2  0  0  0
 23 25  1  0  0  0
 25 26  1  0  0  0
 25 30  1  0  0  0
 26 27  1  0  0  0
 26 63  1  0  0  0
 26 64  1  0  0  0
 27 28  1  0  0  0
 27 65  1  0  0  0
 27 66  1  0  0  0
 28 29  1  0  0  0
 28 49  1  0  0  0
 29 30  1  0  0  0
 29 67  1  0  0  0
 29 68  1  0  0  0
 30 69  1  0  0  0
 30 70  1  0  0  0
 31 32  1  0  0  0
 31 71  1  0  0  0
 32 33  2  0  0  0
 32 72  1  0  0  0
 33 34  1  0  0  0
 33 37  1  0  0  0
 34 35  1  0  0  0
 34 36  1  0  0  0
 34 42  1  0  0  0
 35 73  1  0  0  0
 35 74  1  0  0  0
 35 75  1  0  0  0
 36 76  1  0  0  0
 36 77  1  0  0  0
 36 78  1  0  0  0
 37 38  2  0  0  0
 37 79  1  0  0  0
 38 39  1  0  0  0
 39 40  1  0  0  0
 40 41  1  0  0  0
 40 80  1  0  0  0
 40 81  1  0  0  0
 41 82  1  0  0  0
 41 83  1  0  0  0
 41 84  1  0  0  0
 42 85  1  0  0  0
 42 86  1  0  0  0
 42 87  1  0  0  0
 43 44  1  0  0  0
 43 49  1  0  0  0
 43 88  1  0  0  0
 43 89  1  0  0  0
 44 45  1  0  0  0
 44 90  1  0  0  0
 44 91  1  0  0  0
 45 46  1  0  0  0
 45 47  2  0  0  0
 45 48  2  0  0  0
 46 92  1  0  0  0
 46 93  1  0  0  0
 46 94  1  0  0  0
 49 95  1  0  0  0
 49 96  1  0  0  0
 97 98  1  0  0  0
M  END
> <s_m_entry_id>
670

> <s_m_entry_name>
4ipf.1_ligand

> <s_pdb_PDB_TITLE>
THE 1.7A CRYSTAL STRUCTURE OF HUMANIZED XENOPUS MDM2 WITH RO5045337

> <s_pdb_PDB_ID>
4IPF

> <r_pdb_PDB_CRYST1_a>
43.083

> <r_pdb_PDB_CRYST1_b>
67.493

> <r_pdb_PDB_CRYST1_c>
66.724

> <r_pdb_PDB_CRYST1_alpha>
90

> <r_pdb_PDB_CRYST1_beta>
90

> <r_pdb_PDB_CRYST1_gamma>
90

> <s_pdb_PDB_CRYST1_Space_Group>
C 2 2 21

> <i_pdb_PDB_CRYST1_z>
8

> <s_pdb_PDB_CLASSIFICATION>
LIGASE/ANTAGONIST

> <s_pdb_PDB_DEPOSITION_DATE>
09-JAN-13

> <s_pdb_PDB_format_version>
3.30

> <r_pdb_PDB_R>
0.208

> <r_pdb_PDB_Rfree>
0.229

> <r_pdb_PDB_RESOLUTION>
1.7

> <s_pdb_PDB_EXPDTA>
X-RAY DIFFRACTION

> <r_pdb_PDB_EXPDTA_TEMPERATURE>
100

> <r_pdb_PDB_EXPDTA_PH>
6.5

> <s_pdb_PDB_REMARK_350_Biomolecule_1_Transform_1_Chains>
A

> <s_pdb_PDB_REMARK_350_Biomolecule_1_Transform_1_Matrix_1>
1.000000 0.000000 0.000000   0.000000;0.000000 1.000000 0.000000   0.000000;0.000000 0.000000 1.000000   0.000000

> <s_m_Source_Path>
/scratch

> <s_m_Source_File>
4ipf.pdb

> <i_m_Source_File_Index>
1

> <s_ppw_entry_id_backup>
668

> <b_ppw_prepared>
1

> <s_ppw_prepared_with_version>
2019-1

> <b_ppw_assigned_bond_orders>
1

> <b_ppw_added_hydrogens>
1

> <b_ppw_treated_metals>
1

> <b_ppw_created_disulfur>
1

> <b_ppw_deleted_far_waters>
1

> <s_ppw_het_states>
eJztljFv20AMhf+KoLV2KpInnZRsnboWHYsMRpqprt3BHYog/70iJX06OSiKzrUH4305Se+oe6TzUkt9X30ZP90gu6p53FWjUpShEqpFdaiM6lHDrHLToASlKEMlVIvqUBnVo/AQPAQPwUPwEDwED8FD8BA8BA/FQ/FQPBQPxUPxUDwUD8VD8TA8DA/Dw/AwPAwPw8PwMDwsPFxOZx3HLNNRBQ4lxisT4hBJKDFtsQXHhThmLbBjtfWLrzBvsQez35t5lKOse+7nPStpi6AJkYtT0gJ7Vr3ARkF1NC42x8RqYAu2c0VKKiOQQjQjlUo+I5pSoCwoMlekhDTyWSK+riKpBSpP9oVIr5DjiLAQ5shxgbbisHmUv7WItRDwyLaS8gi4FIivL0ToS+w2aOuT83woSjdEIwgtEd0g9EW0hNAI0QMlcq+FEdtwFc1R4pKrGWMbIzd30vgLeXndVfsF6s+Xw+W5+vF8Ohwvv+7jourb0+H4/vv5+FB93H84n75WT+efp8u4+FB9Gr/r6LTbWH07VtfU3cbqbazexur/MFblTtSWsbrA9Vj1v/9lrL6T2h9X6/xfa040dqKxE42dzO0mmUJGo8ZdccO01wl1i0tnzhgv5TF+FJqpDnVxXYMv//m3QaOIvU5FGEUwaxKzJjFrUr8WMZRF+BtOtMyEeYtkdcLhTRHp34tIaxGvvwGQhp96

$$$$
inp4
                    3D
 Structure written by MMmdl.
102106  0  0  1  0            999 V2000
   12.5930    8.4480   35.6800 N   0  0  0  0  0  0
   11.6930    9.0880   34.7370 C   0  0  2  0  0  0
   10.6480    8.1090   34.1730 C   0  0  0  0  0  0
   12.5190    9.7250   33.6330 C   0  0  0  0  0  0
   11.0400   10.1620   35.6600 C   0  0  2  0  0  0
   10.8030   11.4630   34.9430 C   0  0  0  0  0  0
   11.9970   10.3170   36.7720 N   0  0  0  0  0  0
   12.8170    9.3230   36.8000 C   0  0  0  0  0  0
   13.8480    9.0940   37.8320 C   0  0  0  0  0  0
   13.8950    9.9110   33.8140 C   0  0  0  0  0  0
   14.6510   10.5850   32.8470 C   0  0  0  0  0  0
   14.0230   11.0690   31.6990 C   0  0  0  0  0  0
   14.9490   12.0200   30.5330 Cl  0  0  0  0  0  0
   12.6640   10.8230   31.4760 C   0  0  0  0  0  0
   11.9130   10.1510   32.4430 C   0  0  0  0  0  0
    9.5430   11.7220   34.3940 C   0  0  0  0  0  0
    9.3140   12.9070   33.7010 C   0  0  0  0  0  0
   10.3530   13.8250   33.5590 C   0  0  0  0  0  0
   10.0880   15.3050   32.6470 Cl  0  0  0  0  0  0
   11.6080   13.5830   34.1220 C   0  0  0  0  0  0
   11.8280   12.4000   34.8190 C   0  0  0  0  0  0
   13.0660    7.0970   35.4780 C   0  0  0  0  0  0
   13.3310    6.7080   34.3340 O   0  0  0  0  0  0
   13.2410    6.2470   36.5800 N   0  0  0  0  0  0
   13.8940    4.9610   36.3600 C   0  0  0  0  0  0
   14.7730    4.6360   37.5540 C   0  0  0  0  0  0
   13.9860    4.6500   38.8110 N   0  0  0  0  0  0
   13.3380    5.9800   39.0310 C   0  0  0  0  0  0
   12.4680    6.3950   37.8190 C   0  0  0  0  0  0
   13.5640    9.4060   39.1630 C   0  0  0  0  0  0
   14.5320    9.2370   40.1560 C   0  0  0  0  0  0
   15.8000    8.7430   39.8310 C   0  0  0  0  0  0
   16.8240    8.5630   40.9220 C   0  0  0  0  0  0
   17.7970    9.7470   40.9110 C   0  0  0  0  0  0
   17.6040    7.2640   40.6970 C   0  0  0  0  0  0
   16.1090    8.4270   38.5040 C   0  0  0  0  0  0
   15.1270    8.6120   37.5190 C   0  0  0  0  0  0
   15.4220    8.3400   36.2110 O   0  0  0  0  0  0
   16.7390    7.8810   35.9490 C   0  0  0  0  0  0
   16.8820    7.5420   34.4590 C   0  0  0  0  0  0
   16.1170    8.5010   42.2790 C   0  0  0  0  0  0
   14.1050    4.2660   41.2850 C   0  0  0  0  0  0
   15.0680    3.7860   42.3820 C   0  0  0  0  0  0
   14.4700    4.2170   43.9960 S   0  0  0  0  0  0
   15.5690    3.4180   45.1430 C   0  0  0  0  0  0
   13.1380    3.6560   44.1630 O   0  0  0  0  0  0
   14.5940    5.6660   44.1580 O   0  0  0  0  0  0
   14.8370    4.2230   39.9420 C   0  0  0  0  0  0
    9.9982    8.6340   33.4728 H   0  0  0  0  0  0
   11.1547    7.2938   33.6564 H   0  0  0  0  0  0
   10.0499    7.7049   34.9898 H   0  0  0  0  0  0
    9.2713   10.4068   36.8642 H   0  0  0  0  0  0
   14.3786    9.5338   34.7030 H   0  0  0  0  0  0
   15.7117   10.7267   32.9930 H   0  0  0  0  0  0
   12.1990   11.1524   30.5586 H   0  0  0  0  0  0
   10.8638    9.9597   32.2728 H   0  0  0  0  0  0
    8.7461   11.0019   34.5076 H   0  0  0  0  0  0
    8.3396   13.1069   33.2803 H   0  0  0  0  0  0
   12.7928   12.2070   35.2643 H   0  0  0  0  0  0
   14.5080    5.0147   35.4610 H   0  0  0  0  0  0
   13.1376    4.1848   36.2441 H   0  0  0  0  0  0
   15.5781    5.3676   37.6218 H   0  0  0  0  0  0
   15.2213    3.6519   37.4174 H   0  0  0  0  0  0
   14.1064    6.7342   39.2012 H   0  0  0  0  0  0
   12.7169    5.9373   39.9257 H   0  0  0  0  0  0
   11.5831    5.7602   37.7729 H   0  0  0  0  0  0
   12.1594    7.4342   37.9325 H   0  0  0  0  0  0
   12.5883    9.7820   39.4332 H   0  0  0  0  0  0
   14.3035    9.4881   41.1812 H   0  0  0  0  0  0
   18.5376    9.6167   41.7001 H   0  0  0  0  0  0
   18.3004    9.7953   39.9454 H   0  0  0  0  0  0
   17.2461   10.6723   41.0797 H   0  0  0  0  0  0
   18.3422    7.1409   41.4895 H   0  0  0  0  0  0
   16.9151    6.4193   40.7084 H   0  0  0  0  0  0
   18.1105    7.3061   39.7328 H   0  0  0  0  0  0
   17.0888    8.0482   38.2532 H   0  0  0  0  0  0
   16.9383    6.9902   36.5448 H   0  0  0  0  0  0
   17.4543    8.6594   36.2145 H   0  0  0  0  0  0
   17.8945    7.1899   34.2615 H   0  0  0  0  0  0
   16.1684    6.7622   34.1932 H   0  0  0  0  0  0
   16.6849    8.4328   33.8626 H   0  0  0  0  0  0
   16.8566    8.3708   43.0690 H   0  0  0  0  0  0
   15.5674    9.4275   42.4456 H   0  0  0  0  0  0
   15.4230    7.6605   42.2896 H   0  0  0  0  0  0
   13.7947    5.2892   41.4967 H   0  0  0  0  0  0
   13.2389    3.6052   41.2477 H   0  0  0  0  0  0
   16.0485    4.2359   42.2263 H   0  0  0  0  0  0
   15.1841    2.7043   42.3150 H   0  0  0  0  0  0
   15.2567    3.6428   46.1628 H   0  0  0  0  0  0
   15.5400    2.3401   44.9839 H   0  0  0  0  0  0
   16.5849    3.7807   44.9863 H   0  0  0  0  0  0
   15.7207    4.8592   39.9907 H   0  0  0  0  0  0
   15.2007    3.2117   39.7600 H   0  0  0  0  0  0
    9.7206    9.6381   36.2147 C   0  0  0  0  0  0
    9.9073    8.7080   36.8081 H   0  0  0  0  0  0
    8.7714    9.3239   35.0619 C   0  0  0  0  0  0
    8.5831   10.2544   34.4697 H   0  0  0  0  0  0
    9.2318    8.5477   34.4006 H   0  0  0  0  0  0
    6.7497    8.5591   34.9725 H   0  0  0  0  0  0
    7.4985    8.8184   35.5987 N   0  0  0  0  0  0
    7.3788    8.7324   36.5978 H   0  0  0  0  0  0
   12.3978   14.3117   34.0142 H   0  0  0  0  0  0
  1  2  1  0  0  0
  1  8  1  0  0  0
  1 22  1  0  0  0
  2  3  1  0  0  0
  2  4  1  0  0  0
  2  5  1  0  0  0
  3 49  1  0  0  0
  3 50  1  0  0  0
  3 51  1  0  0  0
  4 10  2  0  0  0
  4 15  1  0  0  0
  5  6  1  0  0  0
  5  7  1  0  0  0
  5 94  1  0  0  0
  6 16  2  0  0  0
  6 21  1  0  0  0
  7  8  2  0  0  0
  8  9  1  0  0  0
  9 30  2  0  0  0
  9 37  1  0  0  0
 10 11  1  0  0  0
 10 53  1  0  0  0
 11 12  2  0  0  0
 11 54  1  0  0  0
 12 13  1  0  0  0
 12 14  1  0  0  0
 14 15  2  0  0  0
 14 55  1  0  0  0
 15 56  1  0  0  0
 16 17  1  0  0  0
 16 57  1  0  0  0
 17 18  2  0  0  0
 17 58  1  0  0  0
 18 19  1  0  0  0
 18 20  1  0  0  0
 20 21  2  0  0  0
 20102  1  0  0  0
 21 59  1  0  0  0
 22 23  2  0  0  0
 22 24  1  0  0  0
 24 25  1  0  0  0
 24 29  1  0  0  0
 25 26  1  0  0  0
 25 60  1  0  0  0
 25 61  1  0  0  0
 26 27  1  0  0  0
 26 62  1  0  0  0
 26 63  1  0  0  0
 27 28  1  0  0  0
 27 48  1  0  0  0
 28 29  1  0  0  0
 28 64  1  0  0  0
 28 65  1  0  0  0
 29 66  1  0  0  0
 29 67  1  0  0  0
 30 31  1  0  0  0
 30 68  1  0  0  0
 31 32  2  0  0  0
 31 69  1  0  0  0
 32 33  1  0  0  0
 32 36  1  0  0  0
 33 34  1  0  0  0
 33 35  1  0  0  0
 33 41  1  0  0  0
 34 70  1  0  0  0
 34 71  1  0  0  0
 34 72  1  0  0  0
 35 73  1  0  0  0
 35 74  1  0  0  0
 35 75  1  0  0  0
 36 37  2  0  0  0
 36 76  1  0  0  0
 37 38  1  0  0  0
 38 39  1  0  0  0
 39 40  1  0  0  0
 39 77  1  0  0  0
 39 78  1  0  0  0
 40 79  1  0  0  0
 40 80  1  0  0  0
 40 81  1  0  0  0
 41 82  1  0  0  0
 41 83  1  0  0  0
 41 84  1  0  0  0
 42 43  1  0  0  0
 42 48  1  0  0  0
 42 85  1  0  0  0
 42 86  1  0  0  0
 43 44  1  0  0  0
 43 87  1  0  0  0
 43 88  1  0  0  0
 44 45  1  0  0  0
 44 46  2  0  0  0
 44 47  2  0  0  0
 45 89  1  0  0  0
 45 90  1  0  0  0
 45 91  1  0  0  0
 48 92  1  0  0  0
 48 93  1  0  0  0
 52 94  1  0  0  0
 94 95  1  0  0  0
 94 96  1  0  0  0
 96 97  1  0  0  0
 96 98  1  0  0  0
 96100  1  0  0  0
 99100  1  0  0  0
100101  1  0  0  0
M  END
> <s_m_entry_id>
675

> <s_m_entry_name>
4ipf.1_ligand

> <s_pdb_PDB_TITLE>
THE 1.7A CRYSTAL STRUCTURE OF HUMANIZED XENOPUS MDM2 WITH RO5045337

> <s_pdb_PDB_ID>
4IPF

> <r_pdb_PDB_CRYST1_a>
43.083

> <r_pdb_PDB_CRYST1_b>
67.493

> <r_pdb_PDB_CRYST1_c>
66.724

> <r_pdb_PDB_CRYST1_alpha>
90

> <r_pdb_PDB_CRYST1_beta>
90

> <r_pdb_PDB_CRYST1_gamma>
90

> <s_pdb_PDB_CRYST1_Space_Group>
C 2 2 21

> <i_pdb_PDB_CRYST1_z>
8

> <s_pdb_PDB_CLASSIFICATION>
LIGASE/ANTAGONIST

> <s_pdb_PDB_DEPOSITION_DATE>
09-JAN-13

> <s_pdb_PDB_format_version>
3.30

> <r_pdb_PDB_R>
0.208

> <r_pdb_PDB_Rfree>
0.229

> <r_pdb_PDB_RESOLUTION>
1.7

> <s_pdb_PDB_EXPDTA>
X-RAY DIFFRACTION

> <r_pdb_PDB_EXPDTA_TEMPERATURE>
100

> <r_pdb_PDB_EXPDTA_PH>
6.5

> <s_pdb_PDB_REMARK_350_Biomolecule_1_Transform_1_Chains>
A

> <s_pdb_PDB_REMARK_350_Biomolecule_1_Transform_1_Matrix_1>
1.000000 0.000000 0.000000   0.000000;0.000000 1.000000 0.000000   0.000000;0.000000 0.000000 1.000000   0.000000

> <s_m_Source_Path>
/scratch

> <s_m_Source_File>
4ipf.pdb

> <i_m_Source_File_Index>
1

> <s_ppw_entry_id_backup>
668

> <b_ppw_prepared>
1

> <s_ppw_prepared_with_version>
2019-1

> <b_ppw_assigned_bond_orders>
1

> <b_ppw_added_hydrogens>
1

> <b_ppw_treated_metals>
1

> <b_ppw_created_disulfur>
1

> <b_ppw_deleted_far_waters>
1

> <s_ppw_het_states>
eJztljFv20AMhf+KoLV2KpInnZRsnboWHYsMRpqprt3BHYog/70iJX06OSiKzrUH4305Se+oe6TzUkt9X30ZP90gu6p53FWjUpShEqpFdaiM6lHDrHLToASlKEMlVIvqUBnVo/AQPAQPwUPwEDwED8FD8BA8BA/FQ/FQPBQPxUPxUDwUD8VD8TA8DA/Dw/AwPAwPw8PwMDwsPFxOZx3HLNNRBQ4lxisT4hBJKDFtsQXHhThmLbBjtfWLrzBvsQez35t5lKOse+7nPStpi6AJkYtT0gJ7Vr3ARkF1NC42x8RqYAu2c0VKKiOQQjQjlUo+I5pSoCwoMlekhDTyWSK+riKpBSpP9oVIr5DjiLAQ5shxgbbisHmUv7WItRDwyLaS8gi4FIivL0ToS+w2aOuT83woSjdEIwgtEd0g9EW0hNAI0QMlcq+FEdtwFc1R4pKrGWMbIzd30vgLeXndVfsF6s+Xw+W5+vF8Ohwvv+7jourb0+H4/vv5+FB93H84n75WT+efp8u4+FB9Gr/r6LTbWH07VtfU3cbqbazexur/MFblTtSWsbrA9Vj1v/9lrL6T2h9X6/xfa040dqKxE42dzO0mmUJGo8ZdccO01wl1i0tnzhgv5TF+FJqpDnVxXYMv//m3QaOIvU5FGEUwaxKzJjFrUr8WMZRF+BtOtMyEeYtkdcLhTRHp34tIaxGvvwGQhp96

$$$$
