1
                    3D
 Structure written by MMmdl.
 74 77  0  0  1  0            999 V2000
    3.0800  -17.4620   27.2750 N   0  0  0  0  0  0
    3.3120  -16.7340   28.3560 C   0  0  0  0  0  0
    4.4480  -16.0080   28.4380 N   0  3  0  0  0  0
    2.3200  -16.6380   29.3820 N   0  0  0  0  0  0
    2.6410  -15.6380   30.4140 C   0  0  0  0  0  0
    1.5210  -17.8360   29.7830 C   0  0  0  0  0  0
    1.7730  -18.3360   31.2110 C   0  0  0  0  0  0
    1.7130  -17.1870   32.2200 C   0  0  0  0  0  0
    2.7390  -16.0950   31.8740 C   0  0  2  0  0  0
    2.5960  -14.8730   32.7920 C   0  0  0  0  0  0
    2.9290  -15.2100   34.2290 C   0  0  0  0  0  0
    4.0560  -15.6000   34.5100 O   0  0  0  0  0  0
    1.9140  -15.0650   35.0970 N   0  0  0  0  0  0
    2.0410  -15.3410   36.5170 C   0  0  2  0  0  0
    1.9860  -16.8080   36.8090 C   0  0  0  0  0  0
    1.4150  -17.6210   36.0800 O   0  0  0  0  0  0
    2.7150  -17.2660   37.9680 O   0  0  0  0  0  0
    2.7260  -18.6450   38.3560 C   0  0  0  0  0  0
    1.1220  -14.4750   37.3750 C   0  0  0  0  0  0
    1.2650  -13.0110   37.2830 C   0  0  0  0  0  0
    0.1930  -12.2330   36.8620 C   0  0  0  0  0  0
    0.3240  -10.8570   36.7820 C   0  0  0  0  0  0
    2.4940  -12.4170   37.5800 C   0  0  0  0  0  0
    2.6450  -11.0420   37.4910 C   0  0  0  0  0  0
    1.5490  -10.2940   37.0900 C   0  0  0  0  0  0
    1.6700   -8.8560   36.9980 C   0  0  0  0  0  0
    1.7430   -7.5660   36.9300 C   0  0  0  0  0  0
    1.7880   -6.1250   36.8770 C   0  0  0  0  0  0
    0.8340   -5.4300   37.5980 C   0  0  0  0  0  0
    0.8590   -4.0550   37.5580 C   0  0  0  0  0  0
    2.7460   -5.5100   36.1070 C   0  0  0  0  0  0
    2.7770   -4.1290   36.0780 C   0  0  0  0  0  0
    1.8330   -3.4120   36.8020 C   0  0  0  0  0  0
    2.2329  -18.0077   27.2059 H   0  0  0  0  0  0
    3.7501  -17.4717   26.5193 H   0  0  0  0  0  0
    4.6325  -15.4499   29.2594 H   0  0  0  0  0  0
    5.1130  -16.0232   27.6780 H   0  0  0  0  0  0
    1.9301  -14.8146   30.3455 H   0  0  0  0  0  0
    3.5626  -15.1252   30.1387 H   0  0  0  0  0  0
    1.7085  -18.6466   29.0788 H   0  0  0  0  0  0
    0.4599  -17.6198   29.6587 H   0  0  0  0  0  0
    2.7522  -18.8122   31.2612 H   0  0  0  0  0  0
    1.0255  -19.0858   31.4701 H   0  0  0  0  0  0
    1.9151  -17.5711   33.2198 H   0  0  0  0  0  0
    0.7115  -16.7568   32.2209 H   0  0  0  0  0  0
    3.7344  -16.5122   32.0267 H   0  0  0  0  0  0
    1.5755  -14.4943   32.7354 H   0  0  0  0  0  0
    3.2558  -14.0785   32.4436 H   0  0  0  0  0  0
    1.0113  -14.7508   34.7706 H   0  0  0  0  0  0
    3.0532  -15.0336   36.7799 H   0  0  0  0  0  0
    1.7072  -18.9732   38.5618 H   0  0  0  0  0  0
    3.1450  -19.2466   37.5494 H   0  0  0  0  0  0
    1.2167  -14.7782   38.4177 H   0  0  0  0  0  0
    0.0856  -14.7459   37.1736 H   0  0  0  0  0  0
   -0.7432  -12.7017   36.5969 H   0  0  0  0  0  0
   -0.5189  -10.2507   36.4848 H   0  0  0  0  0  0
    3.3313  -13.0295   37.8804 H   0  0  0  0  0  0
    3.5944  -10.5864   37.7307 H   0  0  0  0  0  0
    0.0945   -5.9672   38.1732 H   0  0  0  0  0  0
    0.1265   -3.4853   38.1106 H   0  0  0  0  0  0
    3.4502   -6.1048   35.5442 H   0  0  0  0  0  0
    3.5300   -3.6179   35.4965 H   0  0  0  0  0  0
    1.8663   -2.3330   36.7693 H   0  0  0  0  0  0
    5.1426  -19.1255   41.9178 C   0  0  0  0  0  0
    4.5203  -20.2419   41.3355 C   0  0  0  0  0  0
    3.7366  -20.0861   40.1804 C   0  0  0  0  0  0
    3.5753  -18.8138   39.6077 C   0  0  0  0  0  0
    4.1975  -17.6974   40.1899 C   0  0  0  0  0  0
    4.9813  -17.8532   41.3451 C   0  0  0  0  0  0
    5.7583  -19.2479   42.8253 H   0  0  0  0  0  0
    4.6472  -21.2414   41.7856 H   0  0  0  0  0  0
    3.2477  -20.9632   39.7230 H   0  0  0  0  0  0
    4.0707  -16.6980   39.7400 H   0  0  0  0  0  0
    5.4701  -16.9761   41.8025 H   0  0  0  0  0  0
  1  2  1  0  0  0
  1 34  1  0  0  0
  1 35  1  0  0  0
  2  3  2  0  0  0
  2  4  1  0  0  0
  3 36  1  0  0  0
  3 37  1  0  0  0
  4  5  1  0  0  0
  4  6  1  0  0  0
  5  9  1  0  0  0
  5 38  1  0  0  0
  5 39  1  0  0  0
  6  7  1  0  0  0
  6 40  1  0  0  0
  6 41  1  0  0  0
  7  8  1  0  0  0
  7 42  1  0  0  0
  7 43  1  0  0  0
  8  9  1  0  0  0
  8 44  1  0  0  0
  8 45  1  0  0  0
  9 10  1  0  0  0
  9 46  1  0  0  0
 10 11  1  0  0  0
 10 47  1  0  0  0
 10 48  1  0  0  0
 11 12  2  0  0  0
 11 13  1  0  0  0
 13 14  1  0  0  0
 13 49  1  0  0  0
 14 15  1  0  0  0
 14 19  1  0  0  0
 14 50  1  0  0  0
 15 16  2  0  0  0
 15 17  1  0  0  0
 17 18  1  0  0  0
 18 51  1  0  0  0
 18 52  1  0  0  0
 18 67  1  0  0  0
 19 20  1  0  0  0
 19 53  1  0  0  0
 19 54  1  0  0  0
 20 21  2  0  0  0
 20 23  1  0  0  0
 21 22  1  0  0  0
 21 55  1  0  0  0
 22 25  2  0  0  0
 22 56  1  0  0  0
 23 24  2  0  0  0
 23 57  1  0  0  0
 24 25  1  0  0  0
 24 58  1  0  0  0
 25 26  1  0  0  0
 26 27  3  0  0  0
 27 28  1  0  0  0
 28 29  2  0  0  0
 28 31  1  0  0  0
 29 30  1  0  0  0
 29 59  1  0  0  0
 30 33  2  0  0  0
 30 60  1  0  0  0
 31 32  2  0  0  0
 31 61  1  0  0  0
 32 33  1  0  0  0
 32 62  1  0  0  0
 33 63  1  0  0  0
 64 65  2  0  0  0
 64 69  1  0  0  0
 64 70  1  0  0  0
 65 66  1  0  0  0
 65 71  1  0  0  0
 66 67  2  0  0  0
 66 72  1  0  0  0
 67 68  1  0  0  0
 68 69  2  0  0  0
 68 73  1  0  0  0
 69 74  1  0  0  0
M  CHG  1   3   1
M  END
> <s_m_entry_id>
667

> <s_m_entry_name>
1m48.1_ligand

> <s_pdb_PDB_TITLE>
CRYSTAL STRUCTURE OF HUMAN IL-2 COMPLEXED WITH (R)-N-[2-[1- (AMINOIMINOMETHYL)-3-PIPERIDINYL]-1-OXOETHYL]-4-(PHENYLETHYNYL)-L- PHENYLALANINE METHYL ESTER

> <s_pdb_PDB_ID>
1M48

> <r_pdb_PDB_CRYST1_a>
50.47

> <r_pdb_PDB_CRYST1_b>
58.02

> <r_pdb_PDB_CRYST1_c>
93.08

> <r_pdb_PDB_CRYST1_alpha>
90

> <r_pdb_PDB_CRYST1_beta>
90

> <r_pdb_PDB_CRYST1_gamma>
90

> <s_pdb_PDB_CRYST1_Space_Group>
P 21 21 21

> <i_pdb_PDB_CRYST1_z>
8

> <s_pdb_PDB_CLASSIFICATION>
CYTOKINE

> <s_pdb_PDB_DEPOSITION_DATE>
02-JUL-02

> <s_pdb_PDB_format_version>
3.30

> <r_pdb_PDB_R>
0.197

> <r_pdb_PDB_Rfree>
0.269

> <r_pdb_PDB_RESOLUTION>
1.95

> <s_pdb_PDB_EXPDTA>
X-RAY DIFFRACTION

> <r_pdb_PDB_EXPDTA_TEMPERATURE>
100

> <r_pdb_PDB_EXPDTA_PH>
7

> <s_pdb_PDB_REMARK_350_Biomolecule_1_Transform_1_Chains>
A

> <s_pdb_PDB_REMARK_350_Biomolecule_1_Transform_1_Matrix_1>
1.000000 0.000000 0.000000   0.000000;0.000000 1.000000 0.000000   0.000000;0.000000 0.000000 1.000000   0.000000

> <s_m_Source_Path>
/scratch

> <s_m_Source_File>
1m48.pdb

> <i_m_Source_File_Index>
1

> <s_ppw_entry_id_backup>
657

> <b_ppw_prepared>
1

> <s_ppw_prepared_with_version>
2019-1

> <b_ppw_assigned_bond_orders>
1

> <b_ppw_added_hydrogens>
1

> <b_ppw_treated_metals>
1

> <b_ppw_created_disulfur>
1

> <b_ppw_deleted_far_waters>
1

> <s_ppw_het_states>
eJztlD9Pw0AMxb/KKStpuTv78q8bEytiRBmi0omQMIQBVf3uxL4er8kAK0M6ue8c/Z7sJ58zlzXmZf55611ubJsbKT1KQskoA8oCZYmyQln/lGRRgkagEWgEGoFGoBFoBBqBxqAxaAwag8agMWgMGoPGoDFoAbQAWgAtKE3q67DjnB1GHqftFwKjg1UIa6GAEFSoIRQqlBBKFSoI1fqTWgRZlMPO4rqSoNZlaX4hEDpIBVgndUphLQBLal226xcCrJNaJ1gndcpwyupUVu0XAozpmyYgCTpk2Xj6RK1LGpLAqSN9osYYU2cdsuSDEJWYktShQ5as+FshYKb6phFySFOMjEemYpyS4FOHk1CVe18Ws7XzJTe74vone5666WQ+TkPXT1+NNFXm7dj19+9jfzCPu4dxeDXH8XOYGuMO5qkxNtOE/noPbvK33YPtHmz34B/eA7u38Rg4KdaHYH61fxyCO5e17eUb3w6yRA==

> <s_pdb_PDB_REMARK_350_Biomolecule_2_Transform_1_Chains>
B

> <s_pdb_PDB_REMARK_350_Biomolecule_2_Transform_1_Matrix_1>
1.000000 0.000000 0.000000   0.000000;0.000000 1.000000 0.000000   0.000000;0.000000 0.000000 1.000000   0.000000

$$$$
2
                    3D
 Structure written by MMmdl.
 67 69  0  0  1  0            999 V2000
    3.0800  -17.4620   27.2750 N   0  0  0  0  0  0
    3.3120  -16.7340   28.3560 C   0  0  0  0  0  0
    4.4480  -16.0080   28.4380 N   0  3  0  0  0  0
    2.3200  -16.6380   29.3820 N   0  0  0  0  0  0
    2.6410  -15.6380   30.4140 C   0  0  0  0  0  0
    1.5210  -17.8360   29.7830 C   0  0  0  0  0  0
    1.7730  -18.3360   31.2110 C   0  0  0  0  0  0
    1.7130  -17.1870   32.2200 C   0  0  0  0  0  0
    2.7390  -16.0950   31.8740 C   0  0  2  0  0  0
    2.5960  -14.8730   32.7920 C   0  0  0  0  0  0
    2.9290  -15.2100   34.2290 C   0  0  0  0  0  0
    4.0560  -15.6000   34.5100 O   0  0  0  0  0  0
    1.9140  -15.0650   35.0970 N   0  0  0  0  0  0
    2.0410  -15.3410   36.5170 C   0  0  2  0  0  0
    1.9860  -16.8080   36.8090 C   0  0  0  0  0  0
    1.4150  -17.6210   36.0800 O   0  0  0  0  0  0
    2.7150  -17.2660   37.9680 O   0  0  0  0  0  0
    2.7260  -18.6450   38.3560 C   0  0  0  0  0  0
    1.1220  -14.4750   37.3750 C   0  0  1  0  0  0
    1.2650  -13.0110   37.2830 C   0  0  0  0  0  0
    0.1930  -12.2330   36.8620 C   0  0  0  0  0  0
    0.3240  -10.8570   36.7820 C   0  0  0  0  0  0
    2.4940  -12.4170   37.5800 C   0  0  0  0  0  0
    2.6450  -11.0420   37.4910 C   0  0  0  0  0  0
    1.5490  -10.2940   37.0900 C   0  0  0  0  0  0
    1.6700   -8.8560   36.9980 C   0  0  0  0  0  0
    1.7430   -7.5660   36.9300 C   0  0  0  0  0  0
    1.7880   -6.1250   36.8770 C   0  0  0  0  0  0
    0.8340   -5.4300   37.5980 C   0  0  0  0  0  0
    0.8590   -4.0550   37.5580 C   0  0  0  0  0  0
    2.7460   -5.5100   36.1070 C   0  0  0  0  0  0
    2.7770   -4.1290   36.0780 C   0  0  0  0  0  0
    1.8330   -3.4120   36.8020 C   0  0  0  0  0  0
    2.2329  -18.0077   27.2059 H   0  0  0  0  0  0
    3.7501  -17.4717   26.5193 H   0  0  0  0  0  0
    4.6325  -15.4499   29.2594 H   0  0  0  0  0  0
    5.1130  -16.0232   27.6780 H   0  0  0  0  0  0
    1.9301  -14.8146   30.3455 H   0  0  0  0  0  0
    3.5626  -15.1252   30.1387 H   0  0  0  0  0  0
    1.7085  -18.6466   29.0788 H   0  0  0  0  0  0
    0.4599  -17.6198   29.6587 H   0  0  0  0  0  0
    2.7522  -18.8122   31.2612 H   0  0  0  0  0  0
    1.0255  -19.0858   31.4701 H   0  0  0  0  0  0
    1.9151  -17.5711   33.2198 H   0  0  0  0  0  0
    0.7115  -16.7568   32.2209 H   0  0  0  0  0  0
    3.7344  -16.5122   32.0267 H   0  0  0  0  0  0
    1.5755  -14.4943   32.7354 H   0  0  0  0  0  0
    3.2558  -14.0785   32.4436 H   0  0  0  0  0  0
    1.0113  -14.7508   34.7706 H   0  0  0  0  0  0
    3.0532  -15.0336   36.7799 H   0  0  0  0  0  0
    3.3342  -18.7659   39.2524 H   0  0  0  0  0  0
    1.7072  -18.9732   38.5618 H   0  0  0  0  0  0
    3.1450  -19.2466   37.5494 H   0  0  0  0  0  0
    1.2167  -14.7782   38.4177 H   0  0  0  0  0  0
   -0.7432  -12.7017   36.5969 H   0  0  0  0  0  0
   -0.5189  -10.2507   36.4848 H   0  0  0  0  0  0
    3.3313  -13.0295   37.8804 H   0  0  0  0  0  0
    3.5944  -10.5864   37.7307 H   0  0  0  0  0  0
    0.0945   -5.9672   38.1732 H   0  0  0  0  0  0
    0.1265   -3.4853   38.1106 H   0  0  0  0  0  0
    3.4502   -6.1048   35.5442 H   0  0  0  0  0  0
    3.5300   -3.6179   35.4965 H   0  0  0  0  0  0
    1.8663   -2.3330   36.7693 H   0  0  0  0  0  0
   -0.3290  -14.8542   37.0930 C   0  0  0  0  0  0
   -0.4442  -15.9651   37.1614 H   0  0  0  0  0  0
   -0.9958  -14.3631   37.8454 H   0  0  0  0  0  0
   -0.6108  -14.5125   36.0655 H   0  0  0  0  0  0
  1  2  1  0  0  0
  1 34  1  0  0  0
  1 35  1  0  0  0
  2  3  2  0  0  0
  2  4  1  0  0  0
  3 36  1  0  0  0
  3 37  1  0  0  0
  4  5  1  0  0  0
  4  6  1  0  0  0
  5  9  1  0  0  0
  5 38  1  0  0  0
  5 39  1  0  0  0
  6  7  1  0  0  0
  6 40  1  0  0  0
  6 41  1  0  0  0
  7  8  1  0  0  0
  7 42  1  0  0  0
  7 43  1  0  0  0
  8  9  1  0  0  0
  8 44  1  0  0  0
  8 45  1  0  0  0
  9 10  1  0  0  0
  9 46  1  0  0  0
 10 11  1  0  0  0
 10 47  1  0  0  0
 10 48  1  0  0  0
 11 12  2  0  0  0
 11 13  1  0  0  0
 13 14  1  0  0  0
 13 49  1  0  0  0
 14 15  1  0  0  0
 14 19  1  0  0  0
 14 50  1  0  0  0
 15 16  2  0  0  0
 15 17  1  0  0  0
 17 18  1  0  0  0
 18 51  1  0  0  0
 18 52  1  0  0  0
 18 53  1  0  0  0
 19 20  1  0  0  0
 19 54  1  0  0  0
 19 64  1  0  0  0
 20 21  2  0  0  0
 20 23  1  0  0  0
 21 22  1  0  0  0
 21 55  1  0  0  0
 22 25  2  0  0  0
 22 56  1  0  0  0
 23 24  2  0  0  0
 23 57  1  0  0  0
 24 25  1  0  0  0
 24 58  1  0  0  0
 25 26  1  0  0  0
 26 27  3  0  0  0
 27 28  1  0  0  0
 28 29  2  0  0  0
 28 31  1  0  0  0
 29 30  1  0  0  0
 29 59  1  0  0  0
 30 33  2  0  0  0
 30 60  1  0  0  0
 31 32  2  0  0  0
 31 61  1  0  0  0
 32 33  1  0  0  0
 32 62  1  0  0  0
 33 63  1  0  0  0
 64 65  1  0  0  0
 64 66  1  0  0  0
 64 67  1  0  0  0
M  CHG  1   3   1
M  END
> <s_m_entry_id>
666

> <s_m_entry_name>
1m48.1_ligand

> <s_pdb_PDB_TITLE>
CRYSTAL STRUCTURE OF HUMAN IL-2 COMPLEXED WITH (R)-N-[2-[1- (AMINOIMINOMETHYL)-3-PIPERIDINYL]-1-OXOETHYL]-4-(PHENYLETHYNYL)-L- PHENYLALANINE METHYL ESTER

> <s_pdb_PDB_ID>
1M48

> <r_pdb_PDB_CRYST1_a>
50.47

> <r_pdb_PDB_CRYST1_b>
58.02

> <r_pdb_PDB_CRYST1_c>
93.08

> <r_pdb_PDB_CRYST1_alpha>
90

> <r_pdb_PDB_CRYST1_beta>
90

> <r_pdb_PDB_CRYST1_gamma>
90

> <s_pdb_PDB_CRYST1_Space_Group>
P 21 21 21

> <i_pdb_PDB_CRYST1_z>
8

> <s_pdb_PDB_CLASSIFICATION>
CYTOKINE

> <s_pdb_PDB_DEPOSITION_DATE>
02-JUL-02

> <s_pdb_PDB_format_version>
3.30

> <r_pdb_PDB_R>
0.197

> <r_pdb_PDB_Rfree>
0.269

> <r_pdb_PDB_RESOLUTION>
1.95

> <s_pdb_PDB_EXPDTA>
X-RAY DIFFRACTION

> <r_pdb_PDB_EXPDTA_TEMPERATURE>
100

> <r_pdb_PDB_EXPDTA_PH>
7

> <s_pdb_PDB_REMARK_350_Biomolecule_1_Transform_1_Chains>
A

> <s_pdb_PDB_REMARK_350_Biomolecule_1_Transform_1_Matrix_1>
1.000000 0.000000 0.000000   0.000000;0.000000 1.000000 0.000000   0.000000;0.000000 0.000000 1.000000   0.000000

> <s_m_Source_Path>
/scratch

> <s_m_Source_File>
1m48.pdb

> <i_m_Source_File_Index>
1

> <s_ppw_entry_id_backup>
657

> <b_ppw_prepared>
1

> <s_ppw_prepared_with_version>
2019-1

> <b_ppw_assigned_bond_orders>
1

> <b_ppw_added_hydrogens>
1

> <b_ppw_treated_metals>
1

> <b_ppw_created_disulfur>
1

> <b_ppw_deleted_far_waters>
1

> <s_ppw_het_states>
eJztlD9Pw0AMxb/KKStpuTv78q8bEytiRBmi0omQMIQBVf3uxL4er8kAK0M6ue8c/Z7sJ58zlzXmZf55611ubJsbKT1KQskoA8oCZYmyQln/lGRRgkagEWgEGoFGoBFoBBqBxqAxaAwag8agMWgMGoPGoDFoAbQAWgAtKE3q67DjnB1GHqftFwKjg1UIa6GAEFSoIRQqlBBKFSoI1fqTWgRZlMPO4rqSoNZlaX4hEDpIBVgndUphLQBLal226xcCrJNaJ1gndcpwyupUVu0XAozpmyYgCTpk2Xj6RK1LGpLAqSN9osYYU2cdsuSDEJWYktShQ5as+FshYKb6phFySFOMjEemYpyS4FOHk1CVe18Ws7XzJTe74vone5666WQ+TkPXT1+NNFXm7dj19+9jfzCPu4dxeDXH8XOYGuMO5qkxNtOE/noPbvK33YPtHmz34B/eA7u38Rg4KdaHYH61fxyCO5e17eUb3w6yRA==

> <s_pdb_PDB_REMARK_350_Biomolecule_2_Transform_1_Chains>
B

> <s_pdb_PDB_REMARK_350_Biomolecule_2_Transform_1_Matrix_1>
1.000000 0.000000 0.000000   0.000000;0.000000 1.000000 0.000000   0.000000;0.000000 0.000000 1.000000   0.000000

$$$$
3
                    3D
 Structure written by MMmdl.
 66 68  0  0  1  0            999 V2000
    3.0800  -17.4620   27.2750 N   0  0  0  0  0  0
    3.3120  -16.7340   28.3560 C   0  0  0  0  0  0
    4.4480  -16.0080   28.4380 N   0  3  0  0  0  0
    2.3200  -16.6380   29.3820 N   0  0  0  0  0  0
    2.6410  -15.6380   30.4140 C   0  0  0  0  0  0
    1.5210  -17.8360   29.7830 C   0  0  0  0  0  0
    1.7730  -18.3360   31.2110 C   0  0  0  0  0  0
    1.7130  -17.1870   32.2200 C   0  0  0  0  0  0
    2.7390  -16.0950   31.8740 C   0  0  2  0  0  0
    2.5960  -14.8730   32.7920 C   0  0  0  0  0  0
    2.9290  -15.2100   34.2290 C   0  0  0  0  0  0
    4.0560  -15.6000   34.5100 O   0  0  0  0  0  0
    1.9140  -15.0650   35.0970 N   0  0  0  0  0  0
    2.0410  -15.3410   36.5170 C   0  0  2  0  0  0
    1.9860  -16.8080   36.8090 C   0  0  0  0  0  0
    1.4150  -17.6210   36.0800 O   0  0  0  0  0  0
    2.7150  -17.2660   37.9680 O   0  0  0  0  0  0
    2.7260  -18.6450   38.3560 C   0  0  0  0  0  0
    1.1220  -14.4750   37.3750 C   0  0  0  0  0  0
    1.2650  -13.0110   37.2830 C   0  0  0  0  0  0
    0.1930  -12.2330   36.8620 C   0  0  0  0  0  0
    0.3240  -10.8570   36.7820 C   0  0  0  0  0  0
    2.4940  -12.4170   37.5800 C   0  0  0  0  0  0
    2.6450  -11.0420   37.4910 C   0  0  0  0  0  0
    1.5490  -10.2940   37.0900 C   0  0  0  0  0  0
    1.6700   -8.8560   36.9980 C   0  0  0  0  0  0
    1.7430   -7.5660   36.9300 C   0  0  0  0  0  0
    1.7880   -6.1250   36.8770 C   0  0  0  0  0  0
    0.8340   -5.4300   37.5980 C   0  0  0  0  0  0
    0.8590   -4.0550   37.5580 C   0  0  0  0  0  0
    2.7460   -5.5100   36.1070 C   0  0  0  0  0  0
    2.7770   -4.1290   36.0780 C   0  0  0  0  0  0
    1.8330   -3.4120   36.8020 C   0  0  0  0  0  0
    2.2329  -18.0077   27.2059 H   0  0  0  0  0  0
    3.7501  -17.4717   26.5193 H   0  0  0  0  0  0
    4.6325  -15.4499   29.2594 H   0  0  0  0  0  0
    5.1130  -16.0232   27.6780 H   0  0  0  0  0  0
    1.9301  -14.8146   30.3455 H   0  0  0  0  0  0
    3.5626  -15.1252   30.1387 H   0  0  0  0  0  0
    1.7085  -18.6466   29.0788 H   0  0  0  0  0  0
    0.4599  -17.6198   29.6587 H   0  0  0  0  0  0
    2.7522  -18.8122   31.2612 H   0  0  0  0  0  0
    1.0255  -19.0858   31.4701 H   0  0  0  0  0  0
    1.9151  -17.5711   33.2198 H   0  0  0  0  0  0
    0.7115  -16.7568   32.2209 H   0  0  0  0  0  0
    3.7344  -16.5122   32.0267 H   0  0  0  0  0  0
    1.5755  -14.4943   32.7354 H   0  0  0  0  0  0
    3.2558  -14.0785   32.4436 H   0  0  0  0  0  0
    1.0113  -14.7508   34.7706 H   0  0  0  0  0  0
    3.0532  -15.0336   36.7799 H   0  0  0  0  0  0
    3.3342  -18.7659   39.2524 H   0  0  0  0  0  0
    1.7072  -18.9732   38.5618 H   0  0  0  0  0  0
    3.1450  -19.2466   37.5494 H   0  0  0  0  0  0
    1.2167  -14.7782   38.4177 H   0  0  0  0  0  0
    0.0856  -14.7459   37.1736 H   0  0  0  0  0  0
   -0.5189  -10.2507   36.4848 H   0  0  0  0  0  0
    3.3313  -13.0295   37.8804 H   0  0  0  0  0  0
    3.5944  -10.5864   37.7307 H   0  0  0  0  0  0
    0.0945   -5.9672   38.1732 H   0  0  0  0  0  0
    0.1265   -3.4853   38.1106 H   0  0  0  0  0  0
    3.4502   -6.1048   35.5442 H   0  0  0  0  0  0
    3.5300   -3.6179   35.4965 H   0  0  0  0  0  0
    1.8663   -2.3330   36.7693 H   0  0  0  0  0  0
   -1.0752  -12.8679   36.5029 C   0  0  0  0  0  0
   -2.0119  -12.1991   36.1361 O   0  0  0  0  0  0
   -1.1659  -13.9750   36.5721 H   0  0  0  0  0  0
  1  2  1  0  0  0
  1 34  1  0  0  0
  1 35  1  0  0  0
  2  3  2  0  0  0
  2  4  1  0  0  0
  3 36  1  0  0  0
  3 37  1  0  0  0
  4  5  1  0  0  0
  4  6  1  0  0  0
  5  9  1  0  0  0
  5 38  1  0  0  0
  5 39  1  0  0  0
  6  7  1  0  0  0
  6 40  1  0  0  0
  6 41  1  0  0  0
  7  8  1  0  0  0
  7 42  1  0  0  0
  7 43  1  0  0  0
  8  9  1  0  0  0
  8 44  1  0  0  0
  8 45  1  0  0  0
  9 10  1  0  0  0
  9 46  1  0  0  0
 10 11  1  0  0  0
 10 47  1  0  0  0
 10 48  1  0  0  0
 11 12  2  0  0  0
 11 13  1  0  0  0
 13 14  1  0  0  0
 13 49  1  0  0  0
 14 15  1  0  0  0
 14 19  1  0  0  0
 14 50  1  0  0  0
 15 16  2  0  0  0
 15 17  1  0  0  0
 17 18  1  0  0  0
 18 51  1  0  0  0
 18 52  1  0  0  0
 18 53  1  0  0  0
 19 20  1  0  0  0
 19 54  1  0  0  0
 19 55  1  0  0  0
 20 21  2  0  0  0
 20 23  1  0  0  0
 21 22  1  0  0  0
 21 64  1  0  0  0
 22 25  2  0  0  0
 22 56  1  0  0  0
 23 24  2  0  0  0
 23 57  1  0  0  0
 24 25  1  0  0  0
 24 58  1  0  0  0
 25 26  1  0  0  0
 26 27  3  0  0  0
 27 28  1  0  0  0
 28 29  2  0  0  0
 28 31  1  0  0  0
 29 30  1  0  0  0
 29 59  1  0  0  0
 30 33  2  0  0  0
 30 60  1  0  0  0
 31 32  2  0  0  0
 31 61  1  0  0  0
 32 33  1  0  0  0
 32 62  1  0  0  0
 33 63  1  0  0  0
 64 65  2  0  0  0
 64 66  1  0  0  0
M  CHG  1   3   1
M  END
> <s_m_entry_id>
665

> <s_m_entry_name>
1m48.1_ligand

> <s_pdb_PDB_TITLE>
CRYSTAL STRUCTURE OF HUMAN IL-2 COMPLEXED WITH (R)-N-[2-[1- (AMINOIMINOMETHYL)-3-PIPERIDINYL]-1-OXOETHYL]-4-(PHENYLETHYNYL)-L- PHENYLALANINE METHYL ESTER

> <s_pdb_PDB_ID>
1M48

> <r_pdb_PDB_CRYST1_a>
50.47

> <r_pdb_PDB_CRYST1_b>
58.02

> <r_pdb_PDB_CRYST1_c>
93.08

> <r_pdb_PDB_CRYST1_alpha>
90

> <r_pdb_PDB_CRYST1_beta>
90

> <r_pdb_PDB_CRYST1_gamma>
90

> <s_pdb_PDB_CRYST1_Space_Group>
P 21 21 21

> <i_pdb_PDB_CRYST1_z>
8

> <s_pdb_PDB_CLASSIFICATION>
CYTOKINE

> <s_pdb_PDB_DEPOSITION_DATE>
02-JUL-02

> <s_pdb_PDB_format_version>
3.30

> <r_pdb_PDB_R>
0.197

> <r_pdb_PDB_Rfree>
0.269

> <r_pdb_PDB_RESOLUTION>
1.95

> <s_pdb_PDB_EXPDTA>
X-RAY DIFFRACTION

> <r_pdb_PDB_EXPDTA_TEMPERATURE>
100

> <r_pdb_PDB_EXPDTA_PH>
7

> <s_pdb_PDB_REMARK_350_Biomolecule_1_Transform_1_Chains>
A

> <s_pdb_PDB_REMARK_350_Biomolecule_1_Transform_1_Matrix_1>
1.000000 0.000000 0.000000   0.000000;0.000000 1.000000 0.000000   0.000000;0.000000 0.000000 1.000000   0.000000

> <s_m_Source_Path>
/scratch

> <s_m_Source_File>
1m48.pdb

> <i_m_Source_File_Index>
1

> <s_ppw_entry_id_backup>
657

> <b_ppw_prepared>
1

> <s_ppw_prepared_with_version>
2019-1

> <b_ppw_assigned_bond_orders>
1

> <b_ppw_added_hydrogens>
1

> <b_ppw_treated_metals>
1

> <b_ppw_created_disulfur>
1

> <b_ppw_deleted_far_waters>
1

> <s_ppw_het_states>
eJztlD9Pw0AMxb/KKStpuTv78q8bEytiRBmi0omQMIQBVf3uxL4er8kAK0M6ue8c/Z7sJ58zlzXmZf55611ubJsbKT1KQskoA8oCZYmyQln/lGRRgkagEWgEGoFGoBFoBBqBxqAxaAwag8agMWgMGoPGoDFoAbQAWgAtKE3q67DjnB1GHqftFwKjg1UIa6GAEFSoIRQqlBBKFSoI1fqTWgRZlMPO4rqSoNZlaX4hEDpIBVgndUphLQBLal226xcCrJNaJ1gndcpwyupUVu0XAozpmyYgCTpk2Xj6RK1LGpLAqSN9osYYU2cdsuSDEJWYktShQ5as+FshYKb6phFySFOMjEemYpyS4FOHk1CVe18Ws7XzJTe74vone5666WQ+TkPXT1+NNFXm7dj19+9jfzCPu4dxeDXH8XOYGuMO5qkxNtOE/noPbvK33YPtHmz34B/eA7u38Rg4KdaHYH61fxyCO5e17eUb3w6yRA==

> <s_pdb_PDB_REMARK_350_Biomolecule_2_Transform_1_Chains>
B

> <s_pdb_PDB_REMARK_350_Biomolecule_2_Transform_1_Matrix_1>
1.000000 0.000000 0.000000   0.000000;0.000000 1.000000 0.000000   0.000000;0.000000 0.000000 1.000000   0.000000

$$$$
4
                    3D
 Structure written by MMmdl.
 71 74  0  0  1  0            999 V2000
    3.0800  -17.4620   27.2750 N   0  0  0  0  0  0
    3.3120  -16.7340   28.3560 C   0  0  0  0  0  0
    4.4480  -16.0080   28.4380 N   0  3  0  0  0  0
    2.3200  -16.6380   29.3820 N   0  0  0  0  0  0
    2.6410  -15.6380   30.4140 C   0  0  0  0  0  0
    1.5210  -17.8360   29.7830 C   0  0  0  0  0  0
    1.7730  -18.3360   31.2110 C   0  0  0  0  0  0
    1.7130  -17.1870   32.2200 C   0  0  0  0  0  0
    2.7390  -16.0950   31.8740 C   0  0  2  0  0  0
    2.5960  -14.8730   32.7920 C   0  0  0  0  0  0
    2.9290  -15.2100   34.2290 C   0  0  0  0  0  0
    4.0560  -15.6000   34.5100 O   0  0  0  0  0  0
    1.9140  -15.0650   35.0970 N   0  0  0  0  0  0
    2.0410  -15.3410   36.5170 C   0  0  2  0  0  0
    1.9860  -16.8080   36.8090 C   0  0  0  0  0  0
    1.4150  -17.6210   36.0800 O   0  0  0  0  0  0
    2.7150  -17.2660   37.9680 O   0  0  0  0  0  0
    2.7260  -18.6450   38.3560 C   0  0  0  0  0  0
    1.1220  -14.4750   37.3750 C   0  0  0  0  0  0
    1.2650  -13.0110   37.2830 C   0  0  0  0  0  0
    0.1930  -12.2330   36.8620 C   0  0  0  0  0  0
    0.3240  -10.8570   36.7820 C   0  0  0  0  0  0
    2.4940  -12.4170   37.5800 C   0  0  0  0  0  0
    2.6450  -11.0420   37.4910 C   0  0  0  0  0  0
    1.5490  -10.2940   37.0900 C   0  0  0  0  0  0
    1.6700   -8.8560   36.9980 C   0  0  0  0  0  0
    1.7430   -7.5660   36.9300 C   0  0  0  0  0  0
    1.7880   -6.1250   36.8770 C   0  0  0  0  0  0
    0.8340   -5.4300   37.5980 C   0  0  0  0  0  0
    0.8590   -4.0550   37.5580 C   0  0  0  0  0  0
    2.7460   -5.5100   36.1070 C   0  0  0  0  0  0
    2.7770   -4.1290   36.0780 C   0  0  0  0  0  0
    1.8330   -3.4120   36.8020 C   0  0  0  0  0  0
    2.2329  -18.0077   27.2059 H   0  0  0  0  0  0
    3.7501  -17.4717   26.5193 H   0  0  0  0  0  0
    4.6325  -15.4499   29.2594 H   0  0  0  0  0  0
    5.1130  -16.0232   27.6780 H   0  0  0  0  0  0
    1.9301  -14.8146   30.3455 H   0  0  0  0  0  0
    3.5626  -15.1252   30.1387 H   0  0  0  0  0  0
    1.7085  -18.6466   29.0788 H   0  0  0  0  0  0
    0.4599  -17.6198   29.6587 H   0  0  0  0  0  0
    2.7522  -18.8122   31.2612 H   0  0  0  0  0  0
    1.0255  -19.0858   31.4701 H   0  0  0  0  0  0
    1.9151  -17.5711   33.2198 H   0  0  0  0  0  0
    0.7115  -16.7568   32.2209 H   0  0  0  0  0  0
    3.7344  -16.5122   32.0267 H   0  0  0  0  0  0
    1.5755  -14.4943   32.7354 H   0  0  0  0  0  0
    3.2558  -14.0785   32.4436 H   0  0  0  0  0  0
    1.0113  -14.7508   34.7706 H   0  0  0  0  0  0
    3.0532  -15.0336   36.7799 H   0  0  0  0  0  0
    3.3342  -18.7659   39.2524 H   0  0  0  0  0  0
    1.7072  -18.9732   38.5618 H   0  0  0  0  0  0
    3.1450  -19.2466   37.5494 H   0  0  0  0  0  0
    1.2167  -14.7782   38.4177 H   0  0  0  0  0  0
    0.0856  -14.7459   37.1736 H   0  0  0  0  0  0
   -0.7432  -12.7017   36.5969 H   0  0  0  0  0  0
   -0.5189  -10.2507   36.4848 H   0  0  0  0  0  0
    3.3313  -13.0295   37.8804 H   0  0  0  0  0  0
    0.0945   -5.9672   38.1732 H   0  0  0  0  0  0
    0.1265   -3.4853   38.1106 H   0  0  0  0  0  0
    3.4502   -6.1048   35.5442 H   0  0  0  0  0  0
    3.5300   -3.6179   35.4965 H   0  0  0  0  0  0
    1.8663   -2.3330   36.7693 H   0  0  0  0  0  0
    3.9830  -10.3999   37.8287 C   0  0  0  0  0  0
    4.0458   -8.9006   37.7012 C   0  0  0  0  0  0
    4.7229   -9.7725   36.6768 C   0  0  0  0  0  0
    4.6163  -10.8489   38.6296 H   0  0  0  0  0  0
    3.1061   -8.3988   37.3710 H   0  0  0  0  0  0
    4.7200   -8.3773   38.4193 H   0  0  0  0  0  0
    4.2222   -9.8362   35.6821 H   0  0  0  0  0  0
    5.8361   -9.8146   36.7304 H   0  0  0  0  0  0
  1  2  1  0  0  0
  1 34  1  0  0  0
  1 35  1  0  0  0
  2  3  2  0  0  0
  2  4  1  0  0  0
  3 36  1  0  0  0
  3 37  1  0  0  0
  4  5  1  0  0  0
  4  6  1  0  0  0
  5  9  1  0  0  0
  5 38  1  0  0  0
  5 39  1  0  0  0
  6  7  1  0  0  0
  6 40  1  0  0  0
  6 41  1  0  0  0
  7  8  1  0  0  0
  7 42  1  0  0  0
  7 43  1  0  0  0
  8  9  1  0  0  0
  8 44  1  0  0  0
  8 45  1  0  0  0
  9 10  1  0  0  0
  9 46  1  0  0  0
 10 11  1  0  0  0
 10 47  1  0  0  0
 10 48  1  0  0  0
 11 12  2  0  0  0
 11 13  1  0  0  0
 13 14  1  0  0  0
 13 49  1  0  0  0
 14 15  1  0  0  0
 14 19  1  0  0  0
 14 50  1  0  0  0
 15 16  2  0  0  0
 15 17  1  0  0  0
 17 18  1  0  0  0
 18 51  1  0  0  0
 18 52  1  0  0  0
 18 53  1  0  0  0
 19 20  1  0  0  0
 19 54  1  0  0  0
 19 55  1  0  0  0
 20 21  2  0  0  0
 20 23  1  0  0  0
 21 22  1  0  0  0
 21 56  1  0  0  0
 22 25  2  0  0  0
 22 57  1  0  0  0
 23 24  2  0  0  0
 23 58  1  0  0  0
 24 25  1  0  0  0
 24 64  1  0  0  0
 25 26  1  0  0  0
 26 27  3  0  0  0
 27 28  1  0  0  0
 28 29  2  0  0  0
 28 31  1  0  0  0
 29 30  1  0  0  0
 29 59  1  0  0  0
 30 33  2  0  0  0
 30 60  1  0  0  0
 31 32  2  0  0  0
 31 61  1  0  0  0
 32 33  1  0  0  0
 32 62  1  0  0  0
 33 63  1  0  0  0
 64 65  1  0  0  0
 64 66  1  0  0  0
 64 67  1  0  0  0
 65 66  1  0  0  0
 65 68  1  0  0  0
 65 69  1  0  0  0
 66 70  1  0  0  0
 66 71  1  0  0  0
M  CHG  1   3   1
M  END
> <s_m_entry_id>
664

> <s_m_entry_name>
1m48.1_ligand

> <s_pdb_PDB_TITLE>
CRYSTAL STRUCTURE OF HUMAN IL-2 COMPLEXED WITH (R)-N-[2-[1- (AMINOIMINOMETHYL)-3-PIPERIDINYL]-1-OXOETHYL]-4-(PHENYLETHYNYL)-L- PHENYLALANINE METHYL ESTER

> <s_pdb_PDB_ID>
1M48

> <r_pdb_PDB_CRYST1_a>
50.47

> <r_pdb_PDB_CRYST1_b>
58.02

> <r_pdb_PDB_CRYST1_c>
93.08

> <r_pdb_PDB_CRYST1_alpha>
90

> <r_pdb_PDB_CRYST1_beta>
90

> <r_pdb_PDB_CRYST1_gamma>
90

> <s_pdb_PDB_CRYST1_Space_Group>
P 21 21 21

> <i_pdb_PDB_CRYST1_z>
8

> <s_pdb_PDB_CLASSIFICATION>
CYTOKINE

> <s_pdb_PDB_DEPOSITION_DATE>
02-JUL-02

> <s_pdb_PDB_format_version>
3.30

> <r_pdb_PDB_R>
0.197

> <r_pdb_PDB_Rfree>
0.269

> <r_pdb_PDB_RESOLUTION>
1.95

> <s_pdb_PDB_EXPDTA>
X-RAY DIFFRACTION

> <r_pdb_PDB_EXPDTA_TEMPERATURE>
100

> <r_pdb_PDB_EXPDTA_PH>
7

> <s_pdb_PDB_REMARK_350_Biomolecule_1_Transform_1_Chains>
A

> <s_pdb_PDB_REMARK_350_Biomolecule_1_Transform_1_Matrix_1>
1.000000 0.000000 0.000000   0.000000;0.000000 1.000000 0.000000   0.000000;0.000000 0.000000 1.000000   0.000000

> <s_m_Source_Path>
/scratch

> <s_m_Source_File>
1m48.pdb

> <i_m_Source_File_Index>
1

> <s_ppw_entry_id_backup>
657

> <b_ppw_prepared>
1

> <s_ppw_prepared_with_version>
2019-1

> <b_ppw_assigned_bond_orders>
1

> <b_ppw_added_hydrogens>
1

> <b_ppw_treated_metals>
1

> <b_ppw_created_disulfur>
1

> <b_ppw_deleted_far_waters>
1

> <s_ppw_het_states>
eJztlD9Pw0AMxb/KKStpuTv78q8bEytiRBmi0omQMIQBVf3uxL4er8kAK0M6ue8c/Z7sJ58zlzXmZf55611ubJsbKT1KQskoA8oCZYmyQln/lGRRgkagEWgEGoFGoBFoBBqBxqAxaAwag8agMWgMGoPGoDFoAbQAWgAtKE3q67DjnB1GHqftFwKjg1UIa6GAEFSoIRQqlBBKFSoI1fqTWgRZlMPO4rqSoNZlaX4hEDpIBVgndUphLQBLal226xcCrJNaJ1gndcpwyupUVu0XAozpmyYgCTpk2Xj6RK1LGpLAqSN9osYYU2cdsuSDEJWYktShQ5as+FshYKb6phFySFOMjEemYpyS4FOHk1CVe18Ws7XzJTe74vone5666WQ+TkPXT1+NNFXm7dj19+9jfzCPu4dxeDXH8XOYGuMO5qkxNtOE/noPbvK33YPtHmz34B/eA7u38Rg4KdaHYH61fxyCO5e17eUb3w6yRA==

> <s_pdb_PDB_REMARK_350_Biomolecule_2_Transform_1_Chains>
B

> <s_pdb_PDB_REMARK_350_Biomolecule_2_Transform_1_Matrix_1>
1.000000 0.000000 0.000000   0.000000;0.000000 1.000000 0.000000   0.000000;0.000000 0.000000 1.000000   0.000000

$$$$
5
                    3D
 Structure written by MMmdl.
 65 67  0  0  1  0            999 V2000
    3.0800  -17.4620   27.2750 N   0  0  0  0  0  0
    3.3120  -16.7340   28.3560 C   0  0  0  0  0  0
    4.4480  -16.0080   28.4380 N   0  3  0  0  0  0
    2.3200  -16.6380   29.3820 N   0  0  0  0  0  0
    2.6410  -15.6380   30.4140 C   0  0  0  0  0  0
    1.5210  -17.8360   29.7830 C   0  0  0  0  0  0
    1.7730  -18.3360   31.2110 C   0  0  0  0  0  0
    1.7130  -17.1870   32.2200 C   0  0  0  0  0  0
    2.7390  -16.0950   31.8740 C   0  0  2  0  0  0
    2.5960  -14.8730   32.7920 C   0  0  0  0  0  0
    2.9290  -15.2100   34.2290 C   0  0  0  0  0  0
    4.0560  -15.6000   34.5100 O   0  0  0  0  0  0
    1.9140  -15.0650   35.0970 N   0  0  0  0  0  0
    2.0410  -15.3410   36.5170 C   0  0  2  0  0  0
    1.9860  -16.8080   36.8090 C   0  0  0  0  0  0
    1.4150  -17.6210   36.0800 O   0  0  0  0  0  0
    2.7150  -17.2660   37.9680 O   0  0  0  0  0  0
    2.7260  -18.6450   38.3560 C   0  0  0  0  0  0
    1.1220  -14.4750   37.3750 C   0  0  0  0  0  0
    1.2650  -13.0110   37.2830 C   0  0  0  0  0  0
    0.1930  -12.2330   36.8620 C   0  0  0  0  0  0
    0.3240  -10.8570   36.7820 C   0  0  0  0  0  0
    2.4940  -12.4170   37.5800 C   0  0  0  0  0  0
    2.6450  -11.0420   37.4910 C   0  0  0  0  0  0
    1.5490  -10.2940   37.0900 C   0  0  0  0  0  0
    1.6700   -8.8560   36.9980 C   0  0  0  0  0  0
    1.7430   -7.5660   36.9300 C   0  0  0  0  0  0
    1.7880   -6.1250   36.8770 C   0  0  0  0  0  0
    0.8340   -5.4300   37.5980 C   0  0  0  0  0  0
    0.8590   -4.0550   37.5580 C   0  0  0  0  0  0
    2.7460   -5.5100   36.1070 C   0  0  0  0  0  0
    2.7770   -4.1290   36.0780 C   0  0  0  0  0  0
    1.8330   -3.4120   36.8020 C   0  0  0  0  0  0
    2.2329  -18.0077   27.2059 H   0  0  0  0  0  0
    3.7501  -17.4717   26.5193 H   0  0  0  0  0  0
    4.6325  -15.4499   29.2594 H   0  0  0  0  0  0
    5.1130  -16.0232   27.6780 H   0  0  0  0  0  0
    1.9301  -14.8146   30.3455 H   0  0  0  0  0  0
    3.5626  -15.1252   30.1387 H   0  0  0  0  0  0
    1.7085  -18.6466   29.0788 H   0  0  0  0  0  0
    0.4599  -17.6198   29.6587 H   0  0  0  0  0  0
    2.7522  -18.8122   31.2612 H   0  0  0  0  0  0
    1.0255  -19.0858   31.4701 H   0  0  0  0  0  0
    1.9151  -17.5711   33.2198 H   0  0  0  0  0  0
    0.7115  -16.7568   32.2209 H   0  0  0  0  0  0
    3.7344  -16.5122   32.0267 H   0  0  0  0  0  0
    1.5755  -14.4943   32.7354 H   0  0  0  0  0  0
    3.2558  -14.0785   32.4436 H   0  0  0  0  0  0
    1.0113  -14.7508   34.7706 H   0  0  0  0  0  0
    3.0532  -15.0336   36.7799 H   0  0  0  0  0  0
    3.3342  -18.7659   39.2524 H   0  0  0  0  0  0
    1.7072  -18.9732   38.5618 H   0  0  0  0  0  0
    3.1450  -19.2466   37.5494 H   0  0  0  0  0  0
    1.2167  -14.7782   38.4177 H   0  0  0  0  0  0
    0.0856  -14.7459   37.1736 H   0  0  0  0  0  0
   -0.7432  -12.7017   36.5969 H   0  0  0  0  0  0
   -0.5189  -10.2507   36.4848 H   0  0  0  0  0  0
    3.3313  -13.0295   37.8804 H   0  0  0  0  0  0
    3.5944  -10.5864   37.7307 H   0  0  0  0  0  0
    0.1265   -3.4853   38.1106 H   0  0  0  0  0  0
    3.4502   -6.1048   35.5442 H   0  0  0  0  0  0
    3.5300   -3.6179   35.4965 H   0  0  0  0  0  0
    1.8663   -2.3330   36.7693 H   0  0  0  0  0  0
   -0.1000   -6.1085   38.3245 O   0  0  0  0  0  0
   -0.6511   -5.4432   38.7370 H   0  0  0  0  0  0
  1  2  1  0  0  0
  1 34  1  0  0  0
  1 35  1  0  0  0
  2  3  2  0  0  0
  2  4  1  0  0  0
  3 36  1  0  0  0
  3 37  1  0  0  0
  4  5  1  0  0  0
  4  6  1  0  0  0
  5  9  1  0  0  0
  5 38  1  0  0  0
  5 39  1  0  0  0
  6  7  1  0  0  0
  6 40  1  0  0  0
  6 41  1  0  0  0
  7  8  1  0  0  0
  7 42  1  0  0  0
  7 43  1  0  0  0
  8  9  1  0  0  0
  8 44  1  0  0  0
  8 45  1  0  0  0
  9 10  1  0  0  0
  9 46  1  0  0  0
 10 11  1  0  0  0
 10 47  1  0  0  0
 10 48  1  0  0  0
 11 12  2  0  0  0
 11 13  1  0  0  0
 13 14  1  0  0  0
 13 49  1  0  0  0
 14 15  1  0  0  0
 14 19  1  0  0  0
 14 50  1  0  0  0
 15 16  2  0  0  0
 15 17  1  0  0  0
 17 18  1  0  0  0
 18 51  1  0  0  0
 18 52  1  0  0  0
 18 53  1  0  0  0
 19 20  1  0  0  0
 19 54  1  0  0  0
 19 55  1  0  0  0
 20 21  2  0  0  0
 20 23  1  0  0  0
 21 22  1  0  0  0
 21 56  1  0  0  0
 22 25  2  0  0  0
 22 57  1  0  0  0
 23 24  2  0  0  0
 23 58  1  0  0  0
 24 25  1  0  0  0
 24 59  1  0  0  0
 25 26  1  0  0  0
 26 27  3  0  0  0
 27 28  1  0  0  0
 28 29  2  0  0  0
 28 31  1  0  0  0
 29 30  1  0  0  0
 29 64  1  0  0  0
 30 33  2  0  0  0
 30 60  1  0  0  0
 31 32  2  0  0  0
 31 61  1  0  0  0
 32 33  1  0  0  0
 32 62  1  0  0  0
 33 63  1  0  0  0
 64 65  1  0  0  0
M  CHG  1   3   1
M  END
> <s_m_entry_id>
663

> <s_m_entry_name>
1m48.1_ligand

> <s_pdb_PDB_TITLE>
CRYSTAL STRUCTURE OF HUMAN IL-2 COMPLEXED WITH (R)-N-[2-[1- (AMINOIMINOMETHYL)-3-PIPERIDINYL]-1-OXOETHYL]-4-(PHENYLETHYNYL)-L- PHENYLALANINE METHYL ESTER

> <s_pdb_PDB_ID>
1M48

> <r_pdb_PDB_CRYST1_a>
50.47

> <r_pdb_PDB_CRYST1_b>
58.02

> <r_pdb_PDB_CRYST1_c>
93.08

> <r_pdb_PDB_CRYST1_alpha>
90

> <r_pdb_PDB_CRYST1_beta>
90

> <r_pdb_PDB_CRYST1_gamma>
90

> <s_pdb_PDB_CRYST1_Space_Group>
P 21 21 21

> <i_pdb_PDB_CRYST1_z>
8

> <s_pdb_PDB_CLASSIFICATION>
CYTOKINE

> <s_pdb_PDB_DEPOSITION_DATE>
02-JUL-02

> <s_pdb_PDB_format_version>
3.30

> <r_pdb_PDB_R>
0.197

> <r_pdb_PDB_Rfree>
0.269

> <r_pdb_PDB_RESOLUTION>
1.95

> <s_pdb_PDB_EXPDTA>
X-RAY DIFFRACTION

> <r_pdb_PDB_EXPDTA_TEMPERATURE>
100

> <r_pdb_PDB_EXPDTA_PH>
7

> <s_pdb_PDB_REMARK_350_Biomolecule_1_Transform_1_Chains>
A

> <s_pdb_PDB_REMARK_350_Biomolecule_1_Transform_1_Matrix_1>
1.000000 0.000000 0.000000   0.000000;0.000000 1.000000 0.000000   0.000000;0.000000 0.000000 1.000000   0.000000

> <s_m_Source_Path>
/scratch

> <s_m_Source_File>
1m48.pdb

> <i_m_Source_File_Index>
1

> <s_ppw_entry_id_backup>
657

> <b_ppw_prepared>
1

> <s_ppw_prepared_with_version>
2019-1

> <b_ppw_assigned_bond_orders>
1

> <b_ppw_added_hydrogens>
1

> <b_ppw_treated_metals>
1

> <b_ppw_created_disulfur>
1

> <b_ppw_deleted_far_waters>
1

> <s_ppw_het_states>
eJztlD9Pw0AMxb/KKStpuTv78q8bEytiRBmi0omQMIQBVf3uxL4er8kAK0M6ue8c/Z7sJ58zlzXmZf55611ubJsbKT1KQskoA8oCZYmyQln/lGRRgkagEWgEGoFGoBFoBBqBxqAxaAwag8agMWgMGoPGoDFoAbQAWgAtKE3q67DjnB1GHqftFwKjg1UIa6GAEFSoIRQqlBBKFSoI1fqTWgRZlMPO4rqSoNZlaX4hEDpIBVgndUphLQBLal226xcCrJNaJ1gndcpwyupUVu0XAozpmyYgCTpk2Xj6RK1LGpLAqSN9osYYU2cdsuSDEJWYktShQ5as+FshYKb6phFySFOMjEemYpyS4FOHk1CVe18Ws7XzJTe74vone5666WQ+TkPXT1+NNFXm7dj19+9jfzCPu4dxeDXH8XOYGuMO5qkxNtOE/noPbvK33YPtHmz34B/eA7u38Rg4KdaHYH61fxyCO5e17eUb3w6yRA==

> <s_pdb_PDB_REMARK_350_Biomolecule_2_Transform_1_Chains>
B

> <s_pdb_PDB_REMARK_350_Biomolecule_2_Transform_1_Matrix_1>
1.000000 0.000000 0.000000   0.000000;0.000000 1.000000 0.000000   0.000000;0.000000 0.000000 1.000000   0.000000

$$$$
6
                    3D
 Structure written by MMmdl.
 67 69  0  0  1  0            999 V2000
    3.0800  -17.4620   27.2750 N   0  0  0  0  0  0
    3.3120  -16.7340   28.3560 C   0  0  0  0  0  0
    4.4480  -16.0080   28.4380 N   0  3  0  0  0  0
    2.3200  -16.6380   29.3820 N   0  0  0  0  0  0
    2.6410  -15.6380   30.4140 C   0  0  0  0  0  0
    1.5210  -17.8360   29.7830 C   0  0  0  0  0  0
    1.7730  -18.3360   31.2110 C   0  0  0  0  0  0
    1.7130  -17.1870   32.2200 C   0  0  0  0  0  0
    2.7390  -16.0950   31.8740 C   0  0  2  0  0  0
    2.5960  -14.8730   32.7920 C   0  0  0  0  0  0
    2.9290  -15.2100   34.2290 C   0  0  0  0  0  0
    4.0560  -15.6000   34.5100 O   0  0  0  0  0  0
    1.9140  -15.0650   35.0970 N   0  0  0  0  0  0
    2.0410  -15.3410   36.5170 C   0  0  2  0  0  0
    1.9860  -16.8080   36.8090 C   0  0  0  0  0  0
    1.4150  -17.6210   36.0800 O   0  0  0  0  0  0
    2.7150  -17.2660   37.9680 O   0  0  0  0  0  0
    2.7260  -18.6450   38.3560 C   0  0  0  0  0  0
    1.1220  -14.4750   37.3750 C   0  0  0  0  0  0
    1.2650  -13.0110   37.2830 C   0  0  0  0  0  0
    0.1930  -12.2330   36.8620 C   0  0  0  0  0  0
    0.3240  -10.8570   36.7820 C   0  0  0  0  0  0
    2.4940  -12.4170   37.5800 C   0  0  0  0  0  0
    2.6450  -11.0420   37.4910 C   0  0  0  0  0  0
    1.5490  -10.2940   37.0900 C   0  0  0  0  0  0
    1.6700   -8.8560   36.9980 C   0  0  0  0  0  0
    1.7430   -7.5660   36.9300 C   0  0  0  0  0  0
    1.7880   -6.1250   36.8770 C   0  0  0  0  0  0
    0.8340   -5.4300   37.5980 C   0  0  0  0  0  0
    0.8590   -4.0550   37.5580 C   0  0  0  0  0  0
    2.7460   -5.5100   36.1070 C   0  0  0  0  0  0
    2.7770   -4.1290   36.0780 C   0  0  0  0  0  0
    1.8330   -3.4120   36.8020 C   0  0  0  0  0  0
    2.2329  -18.0077   27.2059 H   0  0  0  0  0  0
    3.7501  -17.4717   26.5193 H   0  0  0  0  0  0
    4.6325  -15.4499   29.2594 H   0  0  0  0  0  0
    5.1130  -16.0232   27.6780 H   0  0  0  0  0  0
    1.9301  -14.8146   30.3455 H   0  0  0  0  0  0
    3.5626  -15.1252   30.1387 H   0  0  0  0  0  0
    1.7085  -18.6466   29.0788 H   0  0  0  0  0  0
    0.4599  -17.6198   29.6587 H   0  0  0  0  0  0
    2.7522  -18.8122   31.2612 H   0  0  0  0  0  0
    1.0255  -19.0858   31.4701 H   0  0  0  0  0  0
    1.9151  -17.5711   33.2198 H   0  0  0  0  0  0
    0.7115  -16.7568   32.2209 H   0  0  0  0  0  0
    3.7344  -16.5122   32.0267 H   0  0  0  0  0  0
    1.5755  -14.4943   32.7354 H   0  0  0  0  0  0
    3.2558  -14.0785   32.4436 H   0  0  0  0  0  0
    1.0113  -14.7508   34.7706 H   0  0  0  0  0  0
    3.0532  -15.0336   36.7799 H   0  0  0  0  0  0
    3.3342  -18.7659   39.2524 H   0  0  0  0  0  0
    1.7072  -18.9732   38.5618 H   0  0  0  0  0  0
    3.1450  -19.2466   37.5494 H   0  0  0  0  0  0
    1.2167  -14.7782   38.4177 H   0  0  0  0  0  0
    0.0856  -14.7459   37.1736 H   0  0  0  0  0  0
   -0.7432  -12.7017   36.5969 H   0  0  0  0  0  0
   -0.5189  -10.2507   36.4848 H   0  0  0  0  0  0
    3.3313  -13.0295   37.8804 H   0  0  0  0  0  0
    3.5944  -10.5864   37.7307 H   0  0  0  0  0  0
    0.0945   -5.9672   38.1732 H   0  0  0  0  0  0
    0.1265   -3.4853   38.1106 H   0  0  0  0  0  0
    3.4502   -6.1048   35.5442 H   0  0  0  0  0  0
    3.5300   -3.6179   35.4965 H   0  0  0  0  0  0
    1.8799   -1.8914   36.7559 C   0  0  0  0  0  0
    2.7258   -1.5640   36.1008 H   0  0  0  0  0  0
    0.9159   -1.5009   36.3434 H   0  0  0  0  0  0
    2.0324   -1.4915   37.7897 H   0  0  0  0  0  0
  1  2  1  0  0  0
  1 34  1  0  0  0
  1 35  1  0  0  0
  2  3  2  0  0  0
  2  4  1  0  0  0
  3 36  1  0  0  0
  3 37  1  0  0  0
  4  5  1  0  0  0
  4  6  1  0  0  0
  5  9  1  0  0  0
  5 38  1  0  0  0
  5 39  1  0  0  0
  6  7  1  0  0  0
  6 40  1  0  0  0
  6 41  1  0  0  0
  7  8  1  0  0  0
  7 42  1  0  0  0
  7 43  1  0  0  0
  8  9  1  0  0  0
  8 44  1  0  0  0
  8 45  1  0  0  0
  9 10  1  0  0  0
  9 46  1  0  0  0
 10 11  1  0  0  0
 10 47  1  0  0  0
 10 48  1  0  0  0
 11 12  2  0  0  0
 11 13  1  0  0  0
 13 14  1  0  0  0
 13 49  1  0  0  0
 14 15  1  0  0  0
 14 19  1  0  0  0
 14 50  1  0  0  0
 15 16  2  0  0  0
 15 17  1  0  0  0
 17 18  1  0  0  0
 18 51  1  0  0  0
 18 52  1  0  0  0
 18 53  1  0  0  0
 19 20  1  0  0  0
 19 54  1  0  0  0
 19 55  1  0  0  0
 20 21  2  0  0  0
 20 23  1  0  0  0
 21 22  1  0  0  0
 21 56  1  0  0  0
 22 25  2  0  0  0
 22 57  1  0  0  0
 23 24  2  0  0  0
 23 58  1  0  0  0
 24 25  1  0  0  0
 24 59  1  0  0  0
 25 26  1  0  0  0
 26 27  3  0  0  0
 27 28  1  0  0  0
 28 29  2  0  0  0
 28 31  1  0  0  0
 29 30  1  0  0  0
 29 60  1  0  0  0
 30 33  2  0  0  0
 30 61  1  0  0  0
 31 32  2  0  0  0
 31 62  1  0  0  0
 32 33  1  0  0  0
 32 63  1  0  0  0
 33 64  1  0  0  0
 64 65  1  0  0  0
 64 66  1  0  0  0
 64 67  1  0  0  0
M  CHG  1   3   1
M  END
> <s_m_entry_id>
661

> <s_m_entry_name>
1m48.1_ligand

> <s_pdb_PDB_TITLE>
CRYSTAL STRUCTURE OF HUMAN IL-2 COMPLEXED WITH (R)-N-[2-[1- (AMINOIMINOMETHYL)-3-PIPERIDINYL]-1-OXOETHYL]-4-(PHENYLETHYNYL)-L- PHENYLALANINE METHYL ESTER

> <s_pdb_PDB_ID>
1M48

> <r_pdb_PDB_CRYST1_a>
50.47

> <r_pdb_PDB_CRYST1_b>
58.02

> <r_pdb_PDB_CRYST1_c>
93.08

> <r_pdb_PDB_CRYST1_alpha>
90

> <r_pdb_PDB_CRYST1_beta>
90

> <r_pdb_PDB_CRYST1_gamma>
90

> <s_pdb_PDB_CRYST1_Space_Group>
P 21 21 21

> <i_pdb_PDB_CRYST1_z>
8

> <s_pdb_PDB_CLASSIFICATION>
CYTOKINE

> <s_pdb_PDB_DEPOSITION_DATE>
02-JUL-02

> <s_pdb_PDB_format_version>
3.30

> <r_pdb_PDB_R>
0.197

> <r_pdb_PDB_Rfree>
0.269

> <r_pdb_PDB_RESOLUTION>
1.95

> <s_pdb_PDB_EXPDTA>
X-RAY DIFFRACTION

> <r_pdb_PDB_EXPDTA_TEMPERATURE>
100

> <r_pdb_PDB_EXPDTA_PH>
7

> <s_pdb_PDB_REMARK_350_Biomolecule_1_Transform_1_Chains>
A

> <s_pdb_PDB_REMARK_350_Biomolecule_1_Transform_1_Matrix_1>
1.000000 0.000000 0.000000   0.000000;0.000000 1.000000 0.000000   0.000000;0.000000 0.000000 1.000000   0.000000

> <s_m_Source_Path>
/scratch

> <s_m_Source_File>
1m48.pdb

> <i_m_Source_File_Index>
1

> <s_ppw_entry_id_backup>
657

> <b_ppw_prepared>
1

> <s_ppw_prepared_with_version>
2019-1

> <b_ppw_assigned_bond_orders>
1

> <b_ppw_added_hydrogens>
1

> <b_ppw_treated_metals>
1

> <b_ppw_created_disulfur>
1

> <b_ppw_deleted_far_waters>
1

> <s_ppw_het_states>
eJztlD9Pw0AMxb/KKStpuTv78q8bEytiRBmi0omQMIQBVf3uxL4er8kAK0M6ue8c/Z7sJ58zlzXmZf55611ubJsbKT1KQskoA8oCZYmyQln/lGRRgkagEWgEGoFGoBFoBBqBxqAxaAwag8agMWgMGoPGoDFoAbQAWgAtKE3q67DjnB1GHqftFwKjg1UIa6GAEFSoIRQqlBBKFSoI1fqTWgRZlMPO4rqSoNZlaX4hEDpIBVgndUphLQBLal226xcCrJNaJ1gndcpwyupUVu0XAozpmyYgCTpk2Xj6RK1LGpLAqSN9osYYU2cdsuSDEJWYktShQ5as+FshYKb6phFySFOMjEemYpyS4FOHk1CVe18Ws7XzJTe74vone5666WQ+TkPXT1+NNFXm7dj19+9jfzCPu4dxeDXH8XOYGuMO5qkxNtOE/noPbvK33YPtHmz34B/eA7u38Rg4KdaHYH61fxyCO5e17eUb3w6yRA==

> <s_pdb_PDB_REMARK_350_Biomolecule_2_Transform_1_Chains>
B

> <s_pdb_PDB_REMARK_350_Biomolecule_2_Transform_1_Matrix_1>
1.000000 0.000000 0.000000   0.000000;0.000000 1.000000 0.000000   0.000000;0.000000 0.000000 1.000000   0.000000

$$$$
7
                    3D
 Structure written by MMmdl.
 77 80  0  0  1  0            999 V2000
    3.0800  -17.4620   27.2750 N   0  0  0  0  0  0
    3.3120  -16.7340   28.3560 C   0  0  0  0  0  0
    4.4480  -16.0080   28.4380 N   0  3  0  0  0  0
    2.3200  -16.6380   29.3820 N   0  0  0  0  0  0
    2.6410  -15.6380   30.4140 C   0  0  0  0  0  0
    1.5210  -17.8360   29.7830 C   0  0  0  0  0  0
    1.7730  -18.3360   31.2110 C   0  0  0  0  0  0
    1.7130  -17.1870   32.2200 C   0  0  0  0  0  0
    2.7390  -16.0950   31.8740 C   0  0  2  0  0  0
    2.5960  -14.8730   32.7920 C   0  0  0  0  0  0
    2.9290  -15.2100   34.2290 C   0  0  0  0  0  0
    4.0560  -15.6000   34.5100 O   0  0  0  0  0  0
    1.9140  -15.0650   35.0970 N   0  0  0  0  0  0
    2.0410  -15.3410   36.5170 C   0  0  2  0  0  0
    1.9860  -16.8080   36.8090 C   0  0  0  0  0  0
    1.4150  -17.6210   36.0800 O   0  0  0  0  0  0
    2.7150  -17.2660   37.9680 O   0  0  0  0  0  0
    2.7260  -18.6450   38.3560 C   0  0  0  0  0  0
    1.1220  -14.4750   37.3750 C   0  0  0  0  0  0
    1.2650  -13.0110   37.2830 C   0  0  0  0  0  0
    0.1930  -12.2330   36.8620 C   0  0  0  0  0  0
    0.3240  -10.8570   36.7820 C   0  0  0  0  0  0
    2.4940  -12.4170   37.5800 C   0  0  0  0  0  0
    2.6450  -11.0420   37.4910 C   0  0  0  0  0  0
    1.5490  -10.2940   37.0900 C   0  0  0  0  0  0
    1.6700   -8.8560   36.9980 C   0  0  0  0  0  0
    1.7430   -7.5660   36.9300 C   0  0  0  0  0  0
    1.7880   -6.1250   36.8770 C   0  0  0  0  0  0
    0.8340   -5.4300   37.5980 C   0  0  0  0  0  0
    0.8590   -4.0550   37.5580 C   0  0  0  0  0  0
    2.7460   -5.5100   36.1070 C   0  0  0  0  0  0
    2.7770   -4.1290   36.0780 C   0  0  0  0  0  0
    1.8330   -3.4120   36.8020 C   0  0  0  0  0  0
    2.2329  -18.0077   27.2059 H   0  0  0  0  0  0
    3.7501  -17.4717   26.5193 H   0  0  0  0  0  0
    4.6325  -15.4499   29.2594 H   0  0  0  0  0  0
    5.1130  -16.0232   27.6780 H   0  0  0  0  0  0
    1.9301  -14.8146   30.3455 H   0  0  0  0  0  0
    3.5626  -15.1252   30.1387 H   0  0  0  0  0  0
    1.7085  -18.6466   29.0788 H   0  0  0  0  0  0
    0.4599  -17.6198   29.6587 H   0  0  0  0  0  0
    2.7522  -18.8122   31.2612 H   0  0  0  0  0  0
    1.0255  -19.0858   31.4701 H   0  0  0  0  0  0
    1.9151  -17.5711   33.2198 H   0  0  0  0  0  0
    0.7115  -16.7568   32.2209 H   0  0  0  0  0  0
    3.7344  -16.5122   32.0267 H   0  0  0  0  0  0
    1.5755  -14.4943   32.7354 H   0  0  0  0  0  0
    3.2558  -14.0785   32.4436 H   0  0  0  0  0  0
    1.0113  -14.7508   34.7706 H   0  0  0  0  0  0
    3.0532  -15.0336   36.7799 H   0  0  0  0  0  0
    3.3342  -18.7659   39.2524 H   0  0  0  0  0  0
    1.7072  -18.9732   38.5618 H   0  0  0  0  0  0
    3.1450  -19.2466   37.5494 H   0  0  0  0  0  0
    1.2167  -14.7782   38.4177 H   0  0  0  0  0  0
    0.0856  -14.7459   37.1736 H   0  0  0  0  0  0
   -0.7432  -12.7017   36.5969 H   0  0  0  0  0  0
   -0.5189  -10.2507   36.4848 H   0  0  0  0  0  0
    3.3313  -13.0295   37.8804 H   0  0  0  0  0  0
    3.5944  -10.5864   37.7307 H   0  0  0  0  0  0
    0.0945   -5.9672   38.1732 H   0  0  0  0  0  0
    3.4502   -6.1048   35.5442 H   0  0  0  0  0  0
    3.5300   -3.6179   35.4965 H   0  0  0  0  0  0
    1.8663   -2.3330   36.7693 H   0  0  0  0  0  0
   -0.1732   -3.2521   38.3367 C   0  0  0  0  0  0
    0.0341   -1.7425   38.1549 C   0  0  0  0  0  0
   -0.4285   -1.1454   39.4857 C   0  0  0  0  0  0
    0.1300   -2.1403   40.5056 C   0  0  0  0  0  0
   -0.0949   -3.5108   39.8522 C   0  0  0  0  0  0
   -1.1821   -3.5410   37.9536 H   0  0  0  0  0  0
   -0.5207   -1.3281   37.2789 H   0  0  0  0  0  0
    1.1205   -1.5249   38.0110 H   0  0  0  0  0  0
   -0.0594   -0.1039   39.6467 H   0  0  0  0  0  0
   -1.5446   -1.1384   39.5321 H   0  0  0  0  0  0
    1.2248   -1.9583   40.6344 H   0  0  0  0  0  0
   -0.3550   -2.0493   41.5074 H   0  0  0  0  0  0
   -1.0565   -3.9495   40.2141 H   0  0  0  0  0  0
    0.7204   -4.2264   40.1172 H   0  0  0  0  0  0
  1  2  1  0  0  0
  1 34  1  0  0  0
  1 35  1  0  0  0
  2  3  2  0  0  0
  2  4  1  0  0  0
  3 36  1  0  0  0
  3 37  1  0  0  0
  4  5  1  0  0  0
  4  6  1  0  0  0
  5  9  1  0  0  0
  5 38  1  0  0  0
  5 39  1  0  0  0
  6  7  1  0  0  0
  6 40  1  0  0  0
  6 41  1  0  0  0
  7  8  1  0  0  0
  7 42  1  0  0  0
  7 43  1  0  0  0
  8  9  1  0  0  0
  8 44  1  0  0  0
  8 45  1  0  0  0
  9 10  1  0  0  0
  9 46  1  0  0  0
 10 11  1  0  0  0
 10 47  1  0  0  0
 10 48  1  0  0  0
 11 12  2  0  0  0
 11 13  1  0  0  0
 13 14  1  0  0  0
 13 49  1  0  0  0
 14 15  1  0  0  0
 14 19  1  0  0  0
 14 50  1  0  0  0
 15 16  2  0  0  0
 15 17  1  0  0  0
 17 18  1  0  0  0
 18 51  1  0  0  0
 18 52  1  0  0  0
 18 53  1  0  0  0
 19 20  1  0  0  0
 19 54  1  0  0  0
 19 55  1  0  0  0
 20 21  2  0  0  0
 20 23  1  0  0  0
 21 22  1  0  0  0
 21 56  1  0  0  0
 22 25  2  0  0  0
 22 57  1  0  0  0
 23 24  2  0  0  0
 23 58  1  0  0  0
 24 25  1  0  0  0
 24 59  1  0  0  0
 25 26  1  0  0  0
 26 27  3  0  0  0
 27 28  1  0  0  0
 28 29  2  0  0  0
 28 31  1  0  0  0
 29 30  1  0  0  0
 29 60  1  0  0  0
 30 33  2  0  0  0
 30 64  1  0  0  0
 31 32  2  0  0  0
 31 61  1  0  0  0
 32 33  1  0  0  0
 32 62  1  0  0  0
 33 63  1  0  0  0
 64 65  1  0  0  0
 64 68  1  0  0  0
 64 69  1  0  0  0
 65 66  1  0  0  0
 65 70  1  0  0  0
 65 71  1  0  0  0
 66 67  1  0  0  0
 66 72  1  0  0  0
 66 73  1  0  0  0
 67 68  1  0  0  0
 67 74  1  0  0  0
 67 75  1  0  0  0
 68 76  1  0  0  0
 68 77  1  0  0  0
M  CHG  1   3   1
M  END
> <s_m_entry_id>
662

> <s_m_entry_name>
1m48.1_ligand

> <s_pdb_PDB_TITLE>
CRYSTAL STRUCTURE OF HUMAN IL-2 COMPLEXED WITH (R)-N-[2-[1- (AMINOIMINOMETHYL)-3-PIPERIDINYL]-1-OXOETHYL]-4-(PHENYLETHYNYL)-L- PHENYLALANINE METHYL ESTER

> <s_pdb_PDB_ID>
1M48

> <r_pdb_PDB_CRYST1_a>
50.47

> <r_pdb_PDB_CRYST1_b>
58.02

> <r_pdb_PDB_CRYST1_c>
93.08

> <r_pdb_PDB_CRYST1_alpha>
90

> <r_pdb_PDB_CRYST1_beta>
90

> <r_pdb_PDB_CRYST1_gamma>
90

> <s_pdb_PDB_CRYST1_Space_Group>
P 21 21 21

> <i_pdb_PDB_CRYST1_z>
8

> <s_pdb_PDB_CLASSIFICATION>
CYTOKINE

> <s_pdb_PDB_DEPOSITION_DATE>
02-JUL-02

> <s_pdb_PDB_format_version>
3.30

> <r_pdb_PDB_R>
0.197

> <r_pdb_PDB_Rfree>
0.269

> <r_pdb_PDB_RESOLUTION>
1.95

> <s_pdb_PDB_EXPDTA>
X-RAY DIFFRACTION

> <r_pdb_PDB_EXPDTA_TEMPERATURE>
100

> <r_pdb_PDB_EXPDTA_PH>
7

> <s_pdb_PDB_REMARK_350_Biomolecule_1_Transform_1_Chains>
A

> <s_pdb_PDB_REMARK_350_Biomolecule_1_Transform_1_Matrix_1>
1.000000 0.000000 0.000000   0.000000;0.000000 1.000000 0.000000   0.000000;0.000000 0.000000 1.000000   0.000000

> <s_m_Source_Path>
/scratch

> <s_m_Source_File>
1m48.pdb

> <i_m_Source_File_Index>
1

> <s_ppw_entry_id_backup>
657

> <b_ppw_prepared>
1

> <s_ppw_prepared_with_version>
2019-1

> <b_ppw_assigned_bond_orders>
1

> <b_ppw_added_hydrogens>
1

> <b_ppw_treated_metals>
1

> <b_ppw_created_disulfur>
1

> <b_ppw_deleted_far_waters>
1

> <s_ppw_het_states>
eJztlD9Pw0AMxb/KKStpuTv78q8bEytiRBmi0omQMIQBVf3uxL4er8kAK0M6ue8c/Z7sJ58zlzXmZf55611ubJsbKT1KQskoA8oCZYmyQln/lGRRgkagEWgEGoFGoBFoBBqBxqAxaAwag8agMWgMGoPGoDFoAbQAWgAtKE3q67DjnB1GHqftFwKjg1UIa6GAEFSoIRQqlBBKFSoI1fqTWgRZlMPO4rqSoNZlaX4hEDpIBVgndUphLQBLal226xcCrJNaJ1gndcpwyupUVu0XAozpmyYgCTpk2Xj6RK1LGpLAqSN9osYYU2cdsuSDEJWYktShQ5as+FshYKb6phFySFOMjEemYpyS4FOHk1CVe18Ws7XzJTe74vone5666WQ+TkPXT1+NNFXm7dj19+9jfzCPu4dxeDXH8XOYGuMO5qkxNtOE/noPbvK33YPtHmz34B/eA7u38Rg4KdaHYH61fxyCO5e17eUb3w6yRA==

> <s_pdb_PDB_REMARK_350_Biomolecule_2_Transform_1_Chains>
B

> <s_pdb_PDB_REMARK_350_Biomolecule_2_Transform_1_Matrix_1>
1.000000 0.000000 0.000000   0.000000;0.000000 1.000000 0.000000   0.000000;0.000000 0.000000 1.000000   0.000000

$$$$
