int0
                    3D
 Structure written by MMmdl.
 37 40  0  0  1  0            999 V2000
   -0.8660   30.2730   11.2770 C   0  0  0  0  0  0
   -0.4870   29.6900    9.9480 C   0  0  1  0  0  0
   -0.0150   30.7280    8.9360 C   0  0  0  0  0  0
    0.8980   30.1360    7.9210 C   0  0  0  0  0  0
    1.4010   30.7870    6.8190 N   0  0  0  0  0  0
    2.2080   29.9960    6.0830 N   0  0  0  0  0  0
    2.2110   28.8380    6.7290 C   0  0  0  0  0  0
    3.0220   27.7020    6.1800 C   0  0  0  0  0  0
    2.7830   26.5110    6.3540 O   0  0  0  0  0  0
    4.0600   28.1350    5.4630 N   0  0  0  0  0  0
    5.0470   27.2860    4.8020 C   0  0  0  0  0  0
    6.1490   27.7000    4.0470 C   0  0  0  0  0  0
    6.8420   26.6820    3.5870 N   0  0  0  0  0  0
    6.1970   25.5930    4.0380 N   0  0  0  0  0  0
    5.0920   25.9040    4.7860 C   0  0  0  0  0  0
    1.4020   28.8720    7.9020 C   0  0  0  0  0  0
    1.1220   27.8050    8.9250 C   0  0  0  0  0  0
    0.0740   28.2600    9.9410 C   0  0  2  0  0  0
   -1.3490   28.5300    9.5140 C   0  0  0  0  0  0
   -2.3600   28.1320   10.3690 F   0  0  0  0  0  0
   -1.6730   28.4180    8.1730 F   0  0  0  0  0  0
   -1.1910   29.4760   11.9450 H   0  0  0  0  0  0
   -0.0040   30.7810   11.7100 H   0  0  0  0  0  0
   -1.6780   30.9880   11.1420 H   0  0  0  0  0  0
   -0.8850   31.1750    8.4540 H   0  0  0  0  0  0
    0.5030   31.5240    9.4700 H   0  0  0  0  0  0
    1.2080   31.7440    6.5550 H   0  0  0  0  0  0
    4.2910   29.1030    5.2910 H   0  0  0  0  0  0
    0.7760   26.8840    8.4550 H   0  0  0  0  0  0
    2.0340   27.5500    9.4650 H   0  0  0  0  0  0
    0.1590   27.7560   10.9020 H   0  0  0  0  0  0
    6.5435   24.6714    3.8128 H   0  0  0  0  0  0
    6.3408   28.7532    3.9042 H   0  0  0  0  0  0
    4.2112   24.8237    5.3971 C   0  0  0  0  0  0
    4.6179   23.8159    5.1308 H   0  0  0  0  0  0
    4.1981   24.9384    6.5100 H   0  0  0  0  0  0
    3.1699   24.9224    4.9997 H   0  0  0  0  0  0
  1  2  1  0  0  0
  1 22  1  0  0  0
  1 23  1  0  0  0
  1 24  1  0  0  0
  2  3  1  0  0  0
  2 18  1  0  0  0
  2 19  1  0  0  0
  3  4  1  0  0  0
  3 25  1  0  0  0
  3 26  1  0  0  0
  4  5  1  0  0  0
  4 16  2  0  0  0
  5  6  1  0  0  0
  5 27  1  0  0  0
  6  7  2  0  0  0
  7  8  1  0  0  0
  7 16  1  0  0  0
  8  9  2  0  0  0
  8 10  1  0  0  0
 10 11  1  0  0  0
 10 28  1  0  0  0
 11 12  1  0  0  0
 11 15  2  0  0  0
 12 13  2  0  0  0
 12 33  1  0  0  0
 13 14  1  0  0  0
 14 15  1  0  0  0
 14 32  1  0  0  0
 15 34  1  0  0  0
 16 17  1  0  0  0
 17 18  1  0  0  0
 17 29  1  0  0  0
 17 30  1  0  0  0
 18 19  1  0  0  0
 18 31  1  0  0  0
 19 20  1  0  0  0
 19 21  1  0  0  0
 34 35  1  0  0  0
 34 36  1  0  0  0
 34 37  1  0  0  0
M  END
> <s_m_entry_id>
30

> <s_m_entry_name>
frag.1

> <s_pdb_PDB_format_version>
3.0

> <s_m_Source_Path>
/home/dsoler/repos/pele_platform/pele_platform/Examples/frag/sdf_joiner

> <s_m_Source_File>
frag.sdf

> <i_m_Source_File_Index>
1

> <chiral flag>
1

> <version>
0

> <b_m_Mark>
1

> <chiral flag>
1

> <s_m_subgroup_title>
frag

> <s_m_subgroupid>
frag1

> <b_m_subgroup_collapsed>
0

$$$$
int1
                    3D
 Structure written by MMmdl.
 47 51  0  0  1  0            999 V2000
   -0.8660   30.2730   11.2770 C   0  0  0  0  0  0
   -0.4870   29.6900    9.9480 C   0  0  1  0  0  0
   -0.0150   30.7280    8.9360 C   0  0  0  0  0  0
    0.8980   30.1360    7.9210 C   0  0  0  0  0  0
    1.4010   30.7870    6.8190 N   0  0  0  0  0  0
    2.2080   29.9960    6.0830 N   0  0  0  0  0  0
    2.2110   28.8380    6.7290 C   0  0  0  0  0  0
    3.0220   27.7020    6.1800 C   0  0  0  0  0  0
    2.7830   26.5110    6.3540 O   0  0  0  0  0  0
    4.0600   28.1350    5.4630 N   0  0  0  0  0  0
    5.0470   27.2860    4.8020 C   0  0  0  0  0  0
    6.1490   27.7000    4.0470 C   0  0  0  0  0  0
    6.8420   26.6820    3.5870 N   0  0  0  0  0  0
    6.1970   25.5930    4.0380 N   0  0  0  0  0  0
    5.0920   25.9040    4.7860 C   0  0  0  0  0  0
    1.4020   28.8720    7.9020 C   0  0  0  0  0  0
    1.1220   27.8050    8.9250 C   0  0  0  0  0  0
    0.0740   28.2600    9.9410 C   0  0  2  0  0  0
   -1.3490   28.5300    9.5140 C   0  0  0  0  0  0
   -2.3600   28.1320   10.3690 F   0  0  0  0  0  0
   -1.6730   28.4180    8.1730 F   0  0  0  0  0  0
   -1.1910   29.4760   11.9450 H   0  0  0  0  0  0
   -0.0040   30.7810   11.7100 H   0  0  0  0  0  0
   -1.6780   30.9880   11.1420 H   0  0  0  0  0  0
   -0.8850   31.1750    8.4540 H   0  0  0  0  0  0
    0.5030   31.5240    9.4700 H   0  0  0  0  0  0
    1.2080   31.7440    6.5550 H   0  0  0  0  0  0
    4.2910   29.1030    5.2910 H   0  0  0  0  0  0
    4.4650   25.1350    5.2210 H   0  0  0  0  0  0
    0.7760   26.8840    8.4550 H   0  0  0  0  0  0
    2.0340   27.5500    9.4650 H   0  0  0  0  0  0
    0.1590   27.7560   10.9020 H   0  0  0  0  0  0
    6.5435   24.6714    3.8128 H   0  0  0  0  0  0
    6.5420   29.1428    3.7635 C   0  0  0  0  0  0
    7.8083   29.2218    2.9003 C   0  0  0  0  0  0
    8.4913   30.5091    3.3672 C   0  0  0  0  0  0
    8.2867   30.4599    4.8830 C   0  0  0  0  0  0
    6.8567   29.9278    5.0498 C   0  0  0  0  0  0
    5.6898   29.6232    3.2241 H   0  0  0  0  0  0
    7.5907   29.2207    1.8050 H   0  0  0  0  0  0
    8.4720   28.3509    3.1222 H   0  0  0  0  0  0
    9.5678   30.5608    3.0750 H   0  0  0  0  0  0
    7.9638   31.3963    2.9402 H   0  0  0  0  0  0
    9.0130   29.7371    5.3283 H   0  0  0  0  0  0
    8.4434   31.4516    5.3720 H   0  0  0  0  0  0
    6.1452   30.7822    5.1586 H   0  0  0  0  0  0
    6.7625   29.2948    5.9649 H   0  0  0  0  0  0
  1  2  1  0  0  0
  1 22  1  0  0  0
  1 23  1  0  0  0
  1 24  1  0  0  0
  2  3  1  0  0  0
  2 18  1  0  0  0
  2 19  1  0  0  0
  3  4  1  0  0  0
  3 25  1  0  0  0
  3 26  1  0  0  0
  4  5  1  0  0  0
  4 16  2  0  0  0
  5  6  1  0  0  0
  5 27  1  0  0  0
  6  7  2  0  0  0
  7  8  1  0  0  0
  7 16  1  0  0  0
  8  9  2  0  0  0
  8 10  1  0  0  0
 10 11  1  0  0  0
 10 28  1  0  0  0
 11 12  1  0  0  0
 11 15  2  0  0  0
 12 13  2  0  0  0
 12 34  1  0  0  0
 13 14  1  0  0  0
 14 15  1  0  0  0
 14 33  1  0  0  0
 15 29  1  0  0  0
 16 17  1  0  0  0
 17 18  1  0  0  0
 17 30  1  0  0  0
 17 31  1  0  0  0
 18 19  1  0  0  0
 18 32  1  0  0  0
 19 20  1  0  0  0
 19 21  1  0  0  0
 34 35  1  0  0  0
 34 38  1  0  0  0
 34 39  1  0  0  0
 35 36  1  0  0  0
 35 40  1  0  0  0
 35 41  1  0  0  0
 36 37  1  0  0  0
 36 42  1  0  0  0
 36 43  1  0  0  0
 37 38  1  0  0  0
 37 44  1  0  0  0
 37 45  1  0  0  0
 38 46  1  0  0  0
 38 47  1  0  0  0
M  END
> <s_m_entry_id>
31

> <s_m_entry_name>
frag.2

> <s_pdb_PDB_format_version>
3.0

> <s_m_Source_Path>
/home/dsoler/repos/pele_platform/pele_platform/Examples/frag/sdf_joiner

> <s_m_Source_File>
frag.sdf

> <i_m_Source_File_Index>
2

> <chiral flag>
1

> <version>
0

> <b_m_Mark>
1

> <chiral flag>
1

> <s_m_subgroup_title>
frag

> <s_m_subgroupid>
frag1

> <b_m_subgroup_collapsed>
0

$$$$
int2
                    3D
 Structure written by MMmdl.
 41 45  0  0  1  0            999 V2000
   -0.8660   30.2730   11.2770 C   0  0  0  0  0  0
   -0.4870   29.6900    9.9480 C   0  0  1  0  0  0
   -0.0150   30.7280    8.9360 C   0  0  2  0  0  0
    0.8980   30.1360    7.9210 C   0  0  0  0  0  0
    1.4010   30.7870    6.8190 N   0  0  0  0  0  0
    2.2080   29.9960    6.0830 N   0  0  0  0  0  0
    2.2110   28.8380    6.7290 C   0  0  0  0  0  0
    3.0220   27.7020    6.1800 C   0  0  0  0  0  0
    2.7830   26.5110    6.3540 O   0  0  0  0  0  0
    4.0600   28.1350    5.4630 N   0  0  0  0  0  0
    5.0470   27.2860    4.8020 C   0  0  0  0  0  0
    6.1490   27.7000    4.0470 C   0  0  0  0  0  0
    6.8420   26.6820    3.5870 N   0  0  0  0  0  0
    6.1970   25.5930    4.0380 N   0  0  0  0  0  0
    5.0920   25.9040    4.7860 C   0  0  0  0  0  0
    1.4020   28.8720    7.9020 C   0  0  0  0  0  0
    1.1220   27.8050    8.9250 C   0  0  0  0  0  0
    0.0740   28.2600    9.9410 C   0  0  2  0  0  0
   -1.3490   28.5300    9.5140 C   0  0  0  0  0  0
   -2.3600   28.1320   10.3690 F   0  0  0  0  0  0
   -1.6730   28.4180    8.1730 F   0  0  0  0  0  0
   -1.1910   29.4760   11.9450 H   0  0  0  0  0  0
   -0.0040   30.7810   11.7100 H   0  0  0  0  0  0
   -1.6780   30.9880   11.1420 H   0  0  0  0  0  0
   -0.8850   31.1750    8.4540 H   0  0  0  0  0  0
    1.2080   31.7440    6.5550 H   0  0  0  0  0  0
    4.2910   29.1030    5.2910 H   0  0  0  0  0  0
    6.4290   28.7280    3.8450 H   0  0  0  0  0  0
    4.4650   25.1350    5.2210 H   0  0  0  0  0  0
    0.7760   26.8840    8.4550 H   0  0  0  0  0  0
    2.0340   27.5500    9.4650 H   0  0  0  0  0  0
    0.1590   27.7560   10.9020 H   0  0  0  0  0  0
    6.5435   24.6714    3.8128 H   0  0  0  0  0  0
    0.7105   31.8429    9.6839 C   0  0  0  0  0  0
   -0.0846   32.5464   10.7522 C   0  0  0  0  0  0
    0.1985   33.2389    9.4451 C   0  0  0  0  0  0
    1.8060   31.7499    9.8720 H   0  0  0  0  0  0
   -1.1305   32.1878   10.8982 H   0  0  0  0  0  0
    0.4952   32.9096   11.6329 H   0  0  0  0  0  0
   -0.6638   33.3295    8.7435 H   0  0  0  0  0  0
    0.9619   34.0514    9.4783 H   0  0  0  0  0  0
  1  2  1  0  0  0
  1 22  1  0  0  0
  1 23  1  0  0  0
  1 24  1  0  0  0
  2  3  1  0  0  0
  2 18  1  0  0  0
  2 19  1  0  0  0
  3  4  1  0  0  0
  3 25  1  0  0  0
  3 34  1  0  0  0
  4  5  1  0  0  0
  4 16  2  0  0  0
  5  6  1  0  0  0
  5 26  1  0  0  0
  6  7  2  0  0  0
  7  8  1  0  0  0
  7 16  1  0  0  0
  8  9  2  0  0  0
  8 10  1  0  0  0
 10 11  1  0  0  0
 10 27  1  0  0  0
 11 12  1  0  0  0
 11 15  2  0  0  0
 12 13  2  0  0  0
 12 28  1  0  0  0
 13 14  1  0  0  0
 14 15  1  0  0  0
 14 33  1  0  0  0
 15 29  1  0  0  0
 16 17  1  0  0  0
 17 18  1  0  0  0
 17 30  1  0  0  0
 17 31  1  0  0  0
 18 19  1  0  0  0
 18 32  1  0  0  0
 19 20  1  0  0  0
 19 21  1  0  0  0
 34 35  1  0  0  0
 34 36  1  0  0  0
 34 37  1  0  0  0
 35 36  1  0  0  0
 35 38  1  0  0  0
 35 39  1  0  0  0
 36 40  1  0  0  0
 36 41  1  0  0  0
M  END
> <s_m_entry_id>
32

> <s_m_entry_name>
frag.3

> <s_pdb_PDB_format_version>
3.0

> <s_m_Source_Path>
/home/dsoler/repos/pele_platform/pele_platform/Examples/frag/sdf_joiner

> <s_m_Source_File>
frag.sdf

> <i_m_Source_File_Index>
3

> <chiral flag>
1

> <version>
0

> <b_m_Mark>
1

> <chiral flag>
1

> <s_m_subgroup_title>
frag

> <s_m_subgroupid>
frag1

> <b_m_subgroup_collapsed>
0

$$$$
int3
                    3D
 Structure written by MMmdl.
 44 48  0  0  1  0            999 V2000
   -0.8660   30.2730   11.2770 C   0  0  0  0  0  0
   -0.4870   29.6900    9.9480 C   0  0  1  0  0  0
   -0.0150   30.7280    8.9360 C   0  0  0  0  0  0
    0.8980   30.1360    7.9210 C   0  0  0  0  0  0
    1.4010   30.7870    6.8190 N   0  0  0  0  0  0
    2.2080   29.9960    6.0830 N   0  0  0  0  0  0
    2.2110   28.8380    6.7290 C   0  0  0  0  0  0
    3.0220   27.7020    6.1800 C   0  0  0  0  0  0
    2.7830   26.5110    6.3540 O   0  0  0  0  0  0
    4.0600   28.1350    5.4630 N   0  0  0  0  0  0
    5.0470   27.2860    4.8020 C   0  0  0  0  0  0
    6.1490   27.7000    4.0470 C   0  0  0  0  0  0
    6.8420   26.6820    3.5870 N   0  0  0  0  0  0
    6.1970   25.5930    4.0380 N   0  0  0  0  0  0
    5.0920   25.9040    4.7860 C   0  0  0  0  0  0
    1.4020   28.8720    7.9020 C   0  0  0  0  0  0
    1.1220   27.8050    8.9250 C   0  0  0  0  0  0
    0.0740   28.2600    9.9410 C   0  0  2  0  0  0
   -1.3490   28.5300    9.5140 C   0  0  0  0  0  0
   -2.3600   28.1320   10.3690 F   0  0  0  0  0  0
   -1.6730   28.4180    8.1730 F   0  0  0  0  0  0
   -1.1910   29.4760   11.9450 H   0  0  0  0  0  0
   -0.0040   30.7810   11.7100 H   0  0  0  0  0  0
   -1.6780   30.9880   11.1420 H   0  0  0  0  0  0
   -0.8850   31.1750    8.4540 H   0  0  0  0  0  0
    0.5030   31.5240    9.4700 H   0  0  0  0  0  0
    1.2080   31.7440    6.5550 H   0  0  0  0  0  0
    6.4290   28.7280    3.8450 H   0  0  0  0  0  0
    4.4650   25.1350    5.2210 H   0  0  0  0  0  0
    0.7760   26.8840    8.4550 H   0  0  0  0  0  0
    2.0340   27.5500    9.4650 H   0  0  0  0  0  0
    0.1590   27.7560   10.9020 H   0  0  0  0  0  0
    6.5435   24.6714    3.8128 H   0  0  0  0  0  0
    4.3914   29.5238    5.2162 C   0  0  0  0  0  0
    5.6417   29.7428    4.3569 C   0  0  0  0  0  0
    6.0674   30.8417    5.3373 C   0  0  0  0  0  0
    5.1165   30.2257    6.3699 C   0  0  0  0  0  0
    3.5134   30.1076    4.8469 H   0  0  0  0  0  0
    6.3311   28.8639    4.3765 H   0  0  0  0  0  0
    5.4392   30.0959    3.3177 H   0  0  0  0  0  0
    7.1460   30.8205    5.6235 H   0  0  0  0  0  0
    5.7384   31.8571    5.0077 H   0  0  0  0  0  0
    5.6341   29.5052    7.0489 H   0  0  0  0  0  0
    4.4959   30.9633    6.9326 H   0  0  0  0  0  0
  1  2  1  0  0  0
  1 22  1  0  0  0
  1 23  1  0  0  0
  1 24  1  0  0  0
  2  3  1  0  0  0
  2 18  1  0  0  0
  2 19  1  0  0  0
  3  4  1  0  0  0
  3 25  1  0  0  0
  3 26  1  0  0  0
  4  5  1  0  0  0
  4 16  2  0  0  0
  5  6  1  0  0  0
  5 27  1  0  0  0
  6  7  2  0  0  0
  7  8  1  0  0  0
  7 16  1  0  0  0
  8  9  2  0  0  0
  8 10  1  0  0  0
 10 11  1  0  0  0
 10 34  1  0  0  0
 11 12  1  0  0  0
 11 15  2  0  0  0
 12 13  2  0  0  0
 12 28  1  0  0  0
 13 14  1  0  0  0
 14 15  1  0  0  0
 14 33  1  0  0  0
 15 29  1  0  0  0
 16 17  1  0  0  0
 17 18  1  0  0  0
 17 30  1  0  0  0
 17 31  1  0  0  0
 18 19  1  0  0  0
 18 32  1  0  0  0
 19 20  1  0  0  0
 19 21  1  0  0  0
 34 35  1  0  0  0
 34 37  1  0  0  0
 34 38  1  0  0  0
 35 36  1  0  0  0
 35 39  1  0  0  0
 35 40  1  0  0  0
 36 37  1  0  0  0
 36 41  1  0  0  0
 36 42  1  0  0  0
 37 43  1  0  0  0
 37 44  1  0  0  0
M  END
> <s_m_entry_id>
33

> <s_m_entry_name>
frag.4

> <s_pdb_PDB_format_version>
3.0

> <s_m_Source_Path>
/home/dsoler/repos/pele_platform/pele_platform/Examples/frag/sdf_joiner

> <s_m_Source_File>
frag.sdf

> <i_m_Source_File_Index>
4

> <chiral flag>
1

> <version>
0

> <b_m_Mark>
1

> <chiral flag>
1

> <s_m_subgroup_title>
frag

> <s_m_subgroupid>
frag1

> <b_m_subgroup_collapsed>
0

$$$$
int4
                    3D
 Structure written by MMmdl.
 37 40  0  0  1  0            999 V2000
   -0.8660   30.2730   11.2770 C   0  0  0  0  0  0
   -0.4870   29.6900    9.9480 C   0  0  1  0  0  0
   -0.0150   30.7280    8.9360 C   0  0  0  0  0  0
    0.8980   30.1360    7.9210 C   0  0  0  0  0  0
    1.4010   30.7870    6.8190 N   0  0  0  0  0  0
    2.2080   29.9960    6.0830 N   0  0  0  0  0  0
    2.2110   28.8380    6.7290 C   0  0  0  0  0  0
    3.0220   27.7020    6.1800 C   0  0  0  0  0  0
    2.7830   26.5110    6.3540 O   0  0  0  0  0  0
    4.0600   28.1350    5.4630 N   0  0  0  0  0  0
    5.0470   27.2860    4.8020 C   0  0  0  0  0  0
    6.1490   27.7000    4.0470 C   0  0  0  0  0  0
    6.8420   26.6820    3.5870 N   0  0  0  0  0  0
    6.1970   25.5930    4.0380 N   0  0  0  0  0  0
    5.0920   25.9040    4.7860 C   0  0  0  0  0  0
    1.4020   28.8720    7.9020 C   0  0  0  0  0  0
    1.1220   27.8050    8.9250 C   0  0  0  0  0  0
    0.0740   28.2600    9.9410 C   0  0  2  0  0  0
   -1.3490   28.5300    9.5140 C   0  0  0  0  0  0
   -2.3600   28.1320   10.3690 F   0  0  0  0  0  0
   -1.6730   28.4180    8.1730 F   0  0  0  0  0  0
   -1.1910   29.4760   11.9450 H   0  0  0  0  0  0
   -0.0040   30.7810   11.7100 H   0  0  0  0  0  0
   -0.8850   31.1750    8.4540 H   0  0  0  0  0  0
    0.5030   31.5240    9.4700 H   0  0  0  0  0  0
    1.2080   31.7440    6.5550 H   0  0  0  0  0  0
    4.2910   29.1030    5.2910 H   0  0  0  0  0  0
    6.4290   28.7280    3.8450 H   0  0  0  0  0  0
    4.4650   25.1350    5.2210 H   0  0  0  0  0  0
    0.7760   26.8840    8.4550 H   0  0  0  0  0  0
    2.0340   27.5500    9.4650 H   0  0  0  0  0  0
    0.1590   27.7560   10.9020 H   0  0  0  0  0  0
    6.5435   24.6714    3.8128 H   0  0  0  0  0  0
   -2.1991   31.4468   11.0554 S   0  0  0  0  0  0
   -2.5497   32.0038   12.3830 O   0  0  0  0  0  0
   -1.7437   32.4437   10.2912 H   0  0  0  0  0  0
   -3.2969   30.7699   10.3262 O   0  0  0  0  0  0
  1  2  1  0  0  0
  1 22  1  0  0  0
  1 23  1  0  0  0
  1 34  1  0  0  0
  2  3  1  0  0  0
  2 18  1  0  0  0
  2 19  1  0  0  0
  3  4  1  0  0  0
  3 24  1  0  0  0
  3 25  1  0  0  0
  4  5  1  0  0  0
  4 16  2  0  0  0
  5  6  1  0  0  0
  5 26  1  0  0  0
  6  7  2  0  0  0
  7  8  1  0  0  0
  7 16  1  0  0  0
  8  9  2  0  0  0
  8 10  1  0  0  0
 10 11  1  0  0  0
 10 27  1  0  0  0
 11 12  1  0  0  0
 11 15  2  0  0  0
 12 13  2  0  0  0
 12 28  1  0  0  0
 13 14  1  0  0  0
 14 15  1  0  0  0
 14 33  1  0  0  0
 15 29  1  0  0  0
 16 17  1  0  0  0
 17 18  1  0  0  0
 17 30  1  0  0  0
 17 31  1  0  0  0
 18 19  1  0  0  0
 18 32  1  0  0  0
 19 20  1  0  0  0
 19 21  1  0  0  0
 34 35  2  0  0  0
 34 36  1  0  0  0
 34 37  2  0  0  0
M  END
> <s_m_entry_id>
34

> <s_m_entry_name>
frag.5

> <s_pdb_PDB_format_version>
3.0

> <s_m_Source_Path>
/home/dsoler/repos/pele_platform/pele_platform/Examples/frag/sdf_joiner

> <s_m_Source_File>
frag.sdf

> <i_m_Source_File_Index>
5

> <chiral flag>
1

> <version>
0

> <b_m_Mark>
1

> <chiral flag>
1

> <s_m_subgroup_title>
frag

> <s_m_subgroupid>
frag1

> <b_m_subgroup_collapsed>
0

$$$$
int7
                    3D
 Structure written by MMmdl.
 35 38  0  0  1  0            999 V2000
   -0.8660   30.2730   11.2770 C   0  0  0  0  0  0
   -0.4870   29.6900    9.9480 C   0  0  1  0  0  0
   -0.0150   30.7280    8.9360 C   0  0  0  0  0  0
    0.8980   30.1360    7.9210 C   0  0  0  0  0  0
    1.4010   30.7870    6.8190 N   0  0  0  0  0  0
    2.2080   29.9960    6.0830 N   0  0  0  0  0  0
    2.2110   28.8380    6.7290 C   0  0  0  0  0  0
    3.0220   27.7020    6.1800 C   0  0  0  0  0  0
    2.7830   26.5110    6.3540 O   0  0  0  0  0  0
    4.0600   28.1350    5.4630 N   0  0  0  0  0  0
    5.0470   27.2860    4.8020 C   0  0  0  0  0  0
    6.1490   27.7000    4.0470 C   0  0  0  0  0  0
    6.8420   26.6820    3.5870 N   0  0  0  0  0  0
    6.1970   25.5930    4.0380 N   0  0  0  0  0  0
    5.0920   25.9040    4.7860 C   0  0  0  0  0  0
    1.4020   28.8720    7.9020 C   0  0  0  0  0  0
    1.1220   27.8050    8.9250 C   0  0  0  0  0  0
    0.0740   28.2600    9.9410 C   0  0  2  0  0  0
   -1.3490   28.5300    9.5140 C   0  0  0  0  0  0
   -2.3600   28.1320   10.3690 F   0  0  0  0  0  0
   -1.6730   28.4180    8.1730 F   0  0  0  0  0  0
   -1.1910   29.4760   11.9450 H   0  0  0  0  0  0
   -0.0040   30.7810   11.7100 H   0  0  0  0  0  0
   -1.6780   30.9880   11.1420 H   0  0  0  0  0  0
   -0.8850   31.1750    8.4540 H   0  0  0  0  0  0
    0.5030   31.5240    9.4700 H   0  0  0  0  0  0
    1.2080   31.7440    6.5550 H   0  0  0  0  0  0
    4.2910   29.1030    5.2910 H   0  0  0  0  0  0
    6.4290   28.7280    3.8450 H   0  0  0  0  0  0
    4.4650   25.1350    5.2210 H   0  0  0  0  0  0
    0.7760   26.8840    8.4550 H   0  0  0  0  0  0
    2.0340   27.5500    9.4650 H   0  0  0  0  0  0
    0.1590   27.7560   10.9020 H   0  0  0  0  0  0
    6.6773   24.3156    3.7258 O   0  0  0  0  0  0
    7.4604   24.4489    3.1917 H   0  0  0  0  0  0
  1  2  1  0  0  0
  1 22  1  0  0  0
  1 23  1  0  0  0
  1 24  1  0  0  0
  2  3  1  0  0  0
  2 18  1  0  0  0
  2 19  1  0  0  0
  3  4  1  0  0  0
  3 25  1  0  0  0
  3 26  1  0  0  0
  4  5  1  0  0  0
  4 16  2  0  0  0
  5  6  1  0  0  0
  5 27  1  0  0  0
  6  7  2  0  0  0
  7  8  1  0  0  0
  7 16  1  0  0  0
  8  9  2  0  0  0
  8 10  1  0  0  0
 10 11  1  0  0  0
 10 28  1  0  0  0
 11 12  1  0  0  0
 11 15  2  0  0  0
 12 13  2  0  0  0
 12 29  1  0  0  0
 13 14  1  0  0  0
 14 15  1  0  0  0
 14 34  1  0  0  0
 15 30  1  0  0  0
 16 17  1  0  0  0
 17 18  1  0  0  0
 17 31  1  0  0  0
 17 32  1  0  0  0
 18 19  1  0  0  0
 18 33  1  0  0  0
 19 20  1  0  0  0
 19 21  1  0  0  0
 34 35  1  0  0  0
M  END
> <s_m_entry_id>
36

> <s_m_entry_name>
frag.7

> <s_pdb_PDB_format_version>
3.0

> <s_m_Source_Path>
/home/dsoler/repos/pele_platform/pele_platform/Examples/frag/sdf_joiner

> <s_m_Source_File>
frag.sdf

> <i_m_Source_File_Index>
7

> <chiral flag>
1

> <version>
0

> <b_m_Mark>
1

> <chiral flag>
1

> <s_m_subgroup_title>
frag

> <s_m_subgroupid>
frag1

> <b_m_subgroup_collapsed>
0

$$$$
